xflr5 v6.47											
											
Plane Name											
T1-10.0 m/s-Panel-Inviscid											
QInf  =	10	m/s									
Alpha = 	10										
Beta  = 	   0.000°										
Phi   = 	   0.000°										
Ctrl  = 	0										
CL    = 	1.216729										
Cy    = 	0										
Cd=	0.05105	ICd=	0.05105	PCd=	0						
Cl   = 	4.26E-16										
Cm   =	-1.55736										
ICn=	0	PCn=	0								
XCP=	10.816701	 YCP=	0	 ZCP=	1.021642						
XNP=	0										
Bending =	275043.0313										
											
Main Wing											
  y-span	Chord	Ai	Cl	PCd	ICd	CmGeom	CmAirf@chord/4	XTrtop	XTrBot	XCP	BM
-34.9003	3.6043	-8.257	0.41225	0	0.05982	-2.59132	0.000014	0	0	0.2466	0
-34.6619	3.6613	-7.013	0.685524	0	0.08432	-3.781817	-0.03349	0	0	0.2913	2.6683
-34.1867	3.7749	-5.815	0.925208	0	0.0942	-4.710091	-0.041339	0	0	0.2876	34.876
-33.478	3.9444	-4.736	1.104337	0	0.09146	-5.323352	-0.061393	0	0	0.2985	175.4987
-32.5406	4.1686	-3.83	1.225074	0	0.081976	-5.503652	-0.078765	0	0	0.3071	573.8634
-31.3809	4.4459	-3.13	1.298445	0	0.070964	-5.339182	-0.090534	0	0	0.3124	1459.0847
-30.0069	4.7744	-2.639	1.337369	0	0.061581	-4.956481	-0.097621	0	0	0.3156	3142.9139
-28.4278	5.152	-2.326	1.352701	0	0.054883	-4.460802	-0.101624	0	0	0.3177	6018.6337
-26.6546	5.5761	-2.151	1.352139	0	0.050715	-3.924322	-0.10377	0	0	0.3194	10556.8645
-24.6993	6.0436	-2.076	1.340662	0	0.048505	-3.391284	-0.104816	0	0	0.3209	17297.7209
-22.5753	6.5516	-2.07	1.321342	0	0.04767	-2.886691	-0.105202	0	0	0.3224	26838.2902
-20.2971	7.0963	-2.114	1.29598	0	0.047727	-2.423208	-0.105185	0	0	0.324	39814.6182
-17.8802	7.6743	-2.191	1.265551	0	0.04829	-2.006028	-0.104918	0	0	0.3259	56877.8154
-15.3412	8.2815	-2.289	1.230457	0	0.049037	-1.635919	-0.104524	0	0	0.3281	78664.4138
-12.6974	8.9137	-2.396	1.190665	0	0.049651	-1.311374	-0.104149	0	0	0.3308	105761.6055
-9.9668	9.5666	-2.496	1.145765	0	0.049742	-1.029846	-0.104059	0	0	0.3344	138668.4513
-7.1682	10.2359	-2.563	1.094977	0	0.048725	-0.78877	-0.104885	0	0	0.3397	177754.5236
-4.3206	10.9168	-2.537	1.03697	0	0.045444	-0.586648	-0.108233	0	0	0.3489	223217.7937
-1.4435	11.6048	-2.239	0.966575	0	0.036244	-0.425486	-0.119681	0	0	0.3698	275043.0313
1.4435	11.6048	-2.239	0.966575	0	0.036244	-0.425486	-0.119681	0	0	0.3698	275043.0313
4.3206	10.9168	-2.537	1.03697	0	0.045444	-0.586648	-0.108233	0	0	0.3489	223217.7937
7.1682	10.2359	-2.563	1.094977	0	0.048725	-0.78877	-0.104885	0	0	0.3397	177754.5236
9.9668	9.5666	-2.496	1.145765	0	0.049742	-1.029846	-0.104059	0	0	0.3344	138668.4513
12.6974	8.9137	-2.396	1.190665	0	0.049651	-1.311374	-0.104149	0	0	0.3308	105761.6055
15.3412	8.2815	-2.289	1.230457	0	0.049037	-1.635919	-0.104524	0	0	0.3281	78664.4138
17.8802	7.6743	-2.191	1.265551	0	0.04829	-2.006028	-0.104918	0	0	0.3259	56877.8154
20.2971	7.0963	-2.114	1.29598	0	0.047727	-2.423208	-0.105185	0	0	0.324	39814.6182
22.5753	6.5516	-2.07	1.321342	0	0.04767	-2.886691	-0.105202	0	0	0.3224	26838.2902
24.6993	6.0436	-2.076	1.340662	0	0.048505	-3.391284	-0.104816	0	0	0.3209	17297.7209
26.6546	5.5761	-2.151	1.352139	0	0.050715	-3.924322	-0.10377	0	0	0.3194	10556.8645
28.4278	5.152	-2.326	1.352701	0	0.054883	-4.460802	-0.101624	0	0	0.3177	6018.6337
30.0069	4.7744	-2.639	1.337369	0	0.061581	-4.956481	-0.097621	0	0	0.3156	3142.9139
31.3809	4.4459	-3.13	1.298445	0	0.070964	-5.339182	-0.090534	0	0	0.3124	1459.0847
32.5406	4.1686	-3.83	1.225074	0	0.081976	-5.503652	-0.078765	0	0	0.3071	573.8634
33.478	3.9444	-4.736	1.104337	0	0.09146	-5.323352	-0.061393	0	0	0.2985	175.4987
34.1867	3.7749	-5.815	0.925208	0	0.0942	-4.710091	-0.041339	0	0	0.2876	34.876
34.6619	3.6613	-7.013	0.685524	0	0.08432	-3.781817	-0.03349	0	0	0.2913	2.6683
34.9003	3.6043	-8.257	0.41225	0	0.05982	-2.59132	0.000014	0	0	0.2466	0
											
											
Main Wing Cp Coefficients											
Panel	CtrlPt.x	CtrlPt.y	CtrlPt.z	Nx	Ny	Nz	Area	Cp			
Main WingCp Coefficients											
Strip 1											
13	2.17E+01	-3.49E+01	1.28E+00	-0.128	-0.072	-0.989	6.31E-03	-1.285			
14	2.16E+01	-3.49E+01	1.29E+00	-0.109	-0.067	-0.992	1.85E-02	-1.3365			
15	2.14E+01	-3.49E+01	1.30E+00	0.009	-0.032	-0.999	2.95E-02	-1.2058			
16	2.11E+01	-3.49E+01	1.29E+00	0.073	-0.012	-0.997	3.89E-02	-0.9141			
17	2.08E+01	-3.49E+01	1.26E+00	0.113	0.001	-0.994	4.63E-02	-0.6096			
18	2.04E+01	-3.49E+01	1.21E+00	0.12	0.004	-0.993	5.08E-02	-0.3956			
19	2.00E+01	-3.49E+01	1.16E+00	0.099	-0.005	-0.995	5.22E-02	-0.27			
20	1.95E+01	-3.49E+01	1.13E+00	0.049	-0.026	-0.998	5.05E-02	-0.1896			
21	1.91E+01	-3.49E+01	1.12E+00	-0.012	-0.053	-0.999	4.60E-02	-0.1201			
22	1.88E+01	-3.49E+01	1.14E+00	-0.072	-0.08	-0.994	3.90E-02	-0.0405			
23	1.85E+01	-3.49E+01	1.16E+00	-0.141	-0.114	-0.983	2.99E-02	0.0897			
24	1.83E+01	-3.49E+01	1.21E+00	-0.285	-0.185	-0.941	1.94E-02	0.339			
25	1.82E+01	-3.49E+01	1.25E+00	-0.656	-0.366	-0.66	9.30E-03	0.3281			
26	1.82E+01	-3.49E+01	1.33E+00	-0.797	-0.398	0.454	1.43E-02	-1.5112			
27	1.83E+01	-3.49E+01	1.42E+00	-0.484	-0.225	0.846	2.20E-02	-1.6793			
28	1.85E+01	-3.49E+01	1.51E+00	-0.32	-0.139	0.937	3.16E-02	-1.1523			
29	1.88E+01	-3.49E+01	1.58E+00	-0.206	-0.083	0.975	3.99E-02	-0.9414			
30	1.91E+01	-3.49E+01	1.64E+00	-0.101	-0.033	0.994	4.62E-02	-0.8285			
31	1.95E+01	-3.49E+01	1.66E+00	0.003	0.013	1	5.03E-02	-0.721			
32	2.00E+01	-3.49E+01	1.63E+00	0.097	0.052	0.994	5.21E-02	-0.6119			
33	2.04E+01	-3.49E+01	1.58E+00	0.163	0.077	0.984	5.11E-02	-0.5669			
34	2.08E+01	-3.49E+01	1.50E+00	0.204	0.092	0.975	4.70E-02	-0.6641			
35	2.11E+01	-3.49E+01	1.43E+00	0.222	0.098	0.97	3.99E-02	-0.9428			
36	2.14E+01	-3.49E+01	1.36E+00	0.226	0.099	0.969	3.03E-02	-1.3181			
37	2.16E+01	-3.49E+01	1.31E+00	0.24	0.103	0.965	1.90E-02	-1.4752			
38	2.17E+01	-3.49E+01	1.29E+00	0.243	0.104	0.964	6.46E-03	-1.5016			
Strip 2											
39	2.17E+01	-3.46E+01	1.27E+00	-0.128	-0.072	-0.989	1.92E-02	-0.5258			
40	2.16E+01	-3.46E+01	1.29E+00	-0.109	-0.067	-0.992	5.63E-02	-0.5104			
41	2.14E+01	-3.46E+01	1.29E+00	0.009	-0.032	-0.999	8.96E-02	-0.4419			
42	2.11E+01	-3.46E+01	1.28E+00	0.073	-0.012	-0.997	1.18E-01	-0.346			
43	2.07E+01	-3.46E+01	1.25E+00	0.113	0.001	-0.994	1.41E-01	-0.2491			
44	2.03E+01	-3.46E+01	1.20E+00	0.12	0.004	-0.993	1.54E-01	-0.1885			
45	1.99E+01	-3.46E+01	1.15E+00	0.099	-0.005	-0.995	1.59E-01	-0.1552			
46	1.94E+01	-3.46E+01	1.12E+00	0.049	-0.026	-0.998	1.53E-01	-0.1176			
47	1.90E+01	-3.46E+01	1.11E+00	-0.012	-0.053	-0.999	1.40E-01	-0.0508			
48	1.87E+01	-3.46E+01	1.12E+00	-0.072	-0.08	-0.994	1.19E-01	0.0585			
49	1.84E+01	-3.46E+01	1.15E+00	-0.141	-0.114	-0.983	9.08E-02	0.2429			
50	1.82E+01	-3.46E+01	1.20E+00	-0.285	-0.185	-0.941	5.91E-02	0.5181			
51	1.81E+01	-3.46E+01	1.24E+00	-0.656	-0.366	-0.66	2.83E-02	0.2476			
52	1.81E+01	-3.46E+01	1.32E+00	-0.797	-0.398	0.453	4.33E-02	-2.0878			
53	1.82E+01	-3.46E+01	1.41E+00	-0.484	-0.225	0.846	6.68E-02	-2.1148			
54	1.84E+01	-3.46E+01	1.50E+00	-0.32	-0.139	0.937	9.61E-02	-1.434			
55	1.87E+01	-3.46E+01	1.58E+00	-0.206	-0.083	0.975	1.21E-01	-1.1486			
56	1.90E+01	-3.46E+01	1.63E+00	-0.101	-0.033	0.994	1.41E-01	-0.9878			
57	1.94E+01	-3.46E+01	1.65E+00	0.003	0.013	1	1.53E-01	-0.8391			
58	1.99E+01	-3.46E+01	1.63E+00	0.097	0.052	0.994	1.58E-01	-0.6774			
59	2.03E+01	-3.46E+01	1.57E+00	0.163	0.077	0.984	1.55E-01	-0.5572			
60	2.07E+01	-3.46E+01	1.50E+00	0.204	0.092	0.975	1.43E-01	-0.5286			
61	2.11E+01	-3.46E+01	1.42E+00	0.222	0.098	0.97	1.21E-01	-0.5922			
62	2.14E+01	-3.46E+01	1.35E+00	0.226	0.099	0.969	9.22E-02	-0.6965			
63	2.16E+01	-3.46E+01	1.30E+00	0.24	0.103	0.965	5.78E-02	-0.6793			
64	2.17E+01	-3.46E+01	1.28E+00	0.243	0.104	0.964	1.97E-02	-0.6347			
Strip 3											
65	2.15E+01	-3.42E+01	1.26E+00	-0.128	-0.072	-0.989	3.28E-02	0.0806			
66	2.14E+01	-3.42E+01	1.27E+00	-0.109	-0.067	-0.992	9.63E-02	0.1217			
67	2.12E+01	-3.42E+01	1.28E+00	0.009	-0.032	-0.999	1.53E-01	0.1233			
68	2.09E+01	-3.42E+01	1.26E+00	0.073	-0.012	-0.997	2.03E-01	0.08			
69	2.05E+01	-3.42E+01	1.23E+00	0.113	0.001	-0.994	2.41E-01	0.0389			
70	2.01E+01	-3.42E+01	1.18E+00	0.12	0.004	-0.993	2.64E-01	0.0029			
71	1.97E+01	-3.42E+01	1.13E+00	0.099	-0.005	-0.995	2.71E-01	-0.0184			
72	1.92E+01	-3.42E+01	1.10E+00	0.049	-0.026	-0.998	2.62E-01	-0.0005			
73	1.88E+01	-3.42E+01	1.09E+00	-0.012	-0.053	-0.999	2.39E-01	0.0808			
74	1.84E+01	-3.42E+01	1.10E+00	-0.072	-0.08	-0.994	2.03E-01	0.2305			
75	1.81E+01	-3.42E+01	1.13E+00	-0.141	-0.114	-0.983	1.55E-01	0.4492			
76	1.79E+01	-3.42E+01	1.18E+00	-0.285	-0.185	-0.941	1.01E-01	0.6865			
77	1.78E+01	-3.42E+01	1.23E+00	-0.656	-0.366	-0.66	4.84E-02	0.1502			
78	1.78E+01	-3.42E+01	1.30E+00	-0.798	-0.398	0.453	7.41E-02	-2.6381			
79	1.79E+01	-3.42E+01	1.40E+00	-0.484	-0.225	0.846	1.14E-01	-2.5188			
80	1.81E+01	-3.42E+01	1.49E+00	-0.32	-0.139	0.937	1.64E-01	-1.7325			
81	1.84E+01	-3.42E+01	1.57E+00	-0.206	-0.083	0.975	2.08E-01	-1.3963			
82	1.88E+01	-3.42E+01	1.63E+00	-0.101	-0.033	0.994	2.40E-01	-1.1844			
83	1.92E+01	-3.42E+01	1.65E+00	0.003	0.013	1	2.62E-01	-0.9757			
84	1.97E+01	-3.42E+01	1.62E+00	0.097	0.052	0.994	2.71E-01	-0.7365			
85	2.01E+01	-3.42E+01	1.57E+00	0.163	0.077	0.984	2.66E-01	-0.5069			
86	2.05E+01	-3.42E+01	1.49E+00	0.204	0.092	0.975	2.44E-01	-0.3237			
87	2.09E+01	-3.42E+01	1.41E+00	0.222	0.098	0.97	2.08E-01	-0.1985			
88	2.12E+01	-3.42E+01	1.34E+00	0.226	0.099	0.969	1.58E-01	-0.1289			
89	2.14E+01	-3.42E+01	1.29E+00	0.24	0.103	0.965	9.88E-02	-0.0217			
90	2.15E+01	-3.42E+01	1.26E+00	0.243	0.104	0.964	3.36E-02	0.056			
Strip 4											
91	2.13E+01	-3.35E+01	1.23E+00	-0.128	-0.072	-0.989	4.77E-02	0.2079			
92	2.12E+01	-3.35E+01	1.24E+00	-0.109	-0.067	-0.992	1.40E-01	0.2597			
93	2.10E+01	-3.35E+01	1.25E+00	0.009	-0.032	-0.999	2.23E-01	0.2665			
94	2.07E+01	-3.35E+01	1.24E+00	0.073	-0.012	-0.997	2.94E-01	0.2162			
95	2.03E+01	-3.35E+01	1.20E+00	0.113	0.001	-0.994	3.50E-01	0.1612			
96	1.99E+01	-3.35E+01	1.15E+00	0.12	0.004	-0.993	3.84E-01	0.111			
97	1.94E+01	-3.35E+01	1.10E+00	0.099	-0.005	-0.995	3.94E-01	0.0816			
98	1.89E+01	-3.35E+01	1.06E+00	0.049	-0.026	-0.998	3.81E-01	0.1015			
99	1.85E+01	-3.35E+01	1.05E+00	-0.012	-0.053	-0.999	3.47E-01	0.1914			
100	1.81E+01	-3.35E+01	1.07E+00	-0.072	-0.08	-0.994	2.95E-01	0.3452			
101	1.78E+01	-3.35E+01	1.10E+00	-0.141	-0.114	-0.984	2.26E-01	0.552			
102	1.76E+01	-3.35E+01	1.15E+00	-0.285	-0.185	-0.941	1.47E-01	0.7337			
103	1.74E+01	-3.35E+01	1.20E+00	-0.656	-0.365	-0.661	7.03E-02	-0.0161			
104	1.74E+01	-3.35E+01	1.28E+00	-0.798	-0.399	0.452	1.08E-01	-3.1024			
105	1.76E+01	-3.35E+01	1.38E+00	-0.484	-0.225	0.845	1.66E-01	-2.8264			
106	1.78E+01	-3.35E+01	1.48E+00	-0.32	-0.139	0.937	2.39E-01	-1.9452			
107	1.81E+01	-3.34E+01	1.56E+00	-0.206	-0.083	0.975	3.02E-01	-1.581			
108	1.85E+01	-3.34E+01	1.62E+00	-0.101	-0.033	0.994	3.49E-01	-1.3503			
109	1.89E+01	-3.34E+01	1.64E+00	0.003	0.013	1	3.80E-01	-1.1119			
110	1.94E+01	-3.34E+01	1.62E+00	0.097	0.052	0.994	3.94E-01	-0.8292			
111	1.99E+01	-3.35E+01	1.55E+00	0.163	0.077	0.984	3.86E-01	-0.548			
112	2.03E+01	-3.35E+01	1.47E+00	0.204	0.092	0.975	3.55E-01	-0.3132			
113	2.07E+01	-3.35E+01	1.39E+00	0.222	0.098	0.97	3.02E-01	-0.1425			
114	2.10E+01	-3.35E+01	1.31E+00	0.226	0.099	0.969	2.29E-01	-0.0363			
115	2.12E+01	-3.35E+01	1.26E+00	0.24	0.103	0.965	1.44E-01	0.0936			
116	2.13E+01	-3.35E+01	1.23E+00	0.243	0.104	0.964	4.88E-02	0.1809			
Strip 5											
117	2.11E+01	-3.25E+01	1.20E+00	-0.128	-0.072	-0.989	6.42E-02	0.2506			
118	2.09E+01	-3.25E+01	1.21E+00	-0.109	-0.067	-0.992	1.88E-01	0.3086			
119	2.07E+01	-3.25E+01	1.22E+00	0.009	-0.032	-0.999	3.00E-01	0.3218			
120	2.04E+01	-3.25E+01	1.20E+00	0.073	-0.012	-0.997	3.96E-01	0.2747			
121	2.00E+01	-3.25E+01	1.16E+00	0.113	0.001	-0.994	4.71E-01	0.2212			
122	1.95E+01	-3.25E+01	1.11E+00	0.12	0.004	-0.993	5.17E-01	0.1725			
123	1.90E+01	-3.25E+01	1.06E+00	0.099	-0.005	-0.995	5.31E-01	0.146			
124	1.85E+01	-3.25E+01	1.02E+00	0.049	-0.026	-0.998	5.13E-01	0.1689			
125	1.80E+01	-3.25E+01	1.01E+00	-0.012	-0.053	-0.999	4.68E-01	0.259			
126	1.76E+01	-3.25E+01	1.03E+00	-0.072	-0.08	-0.994	3.97E-01	0.4076			
127	1.73E+01	-3.25E+01	1.06E+00	-0.141	-0.114	-0.984	3.04E-01	0.6031			
128	1.71E+01	-3.25E+01	1.11E+00	-0.285	-0.185	-0.941	1.98E-01	0.7458			
129	1.70E+01	-3.25E+01	1.16E+00	-0.655	-0.365	-0.661	9.47E-02	-0.155			
130	1.70E+01	-3.25E+01	1.25E+00	-0.798	-0.399	0.451	1.45E-01	-3.4397			
131	1.71E+01	-3.25E+01	1.35E+00	-0.485	-0.225	0.845	2.23E-01	-3.0428			
132	1.73E+01	-3.25E+01	1.45E+00	-0.32	-0.139	0.937	3.21E-01	-2.0885			
133	1.76E+01	-3.25E+01	1.54E+00	-0.206	-0.083	0.975	4.06E-01	-1.7035			
134	1.80E+01	-3.25E+01	1.61E+00	-0.101	-0.033	0.994	4.70E-01	-1.4634			
135	1.85E+01	-3.25E+01	1.63E+00	0.003	0.013	1	5.12E-01	-1.2128			
136	1.90E+01	-3.25E+01	1.60E+00	0.097	0.052	0.994	5.30E-01	-0.9104			
137	1.95E+01	-3.25E+01	1.54E+00	0.163	0.077	0.984	5.20E-01	-0.6046			
138	2.00E+01	-3.25E+01	1.45E+00	0.204	0.092	0.975	4.78E-01	-0.3445			
139	2.04E+01	-3.25E+01	1.36E+00	0.222	0.098	0.97	4.06E-01	-0.1506			
140	2.07E+01	-3.25E+01	1.29E+00	0.226	0.099	0.969	3.09E-01	-0.0259			
141	2.09E+01	-3.25E+01	1.23E+00	0.24	0.103	0.965	1.93E-01	0.1172			
142	2.11E+01	-3.25E+01	1.20E+00	0.243	0.104	0.965	6.58E-02	0.2112			
Strip 6											
143	2.07E+01	-3.14E+01	1.15E+00	-0.128	-0.072	-0.989	8.27E-02	0.2688			
144	2.06E+01	-3.14E+01	1.17E+00	-0.109	-0.067	-0.992	2.43E-01	0.3307			
145	2.04E+01	-3.14E+01	1.18E+00	0.009	-0.032	-0.999	3.86E-01	0.3484			
146	2.00E+01	-3.14E+01	1.16E+00	0.073	-0.012	-0.997	5.10E-01	0.3049			
147	1.96E+01	-3.14E+01	1.12E+00	0.113	0.001	-0.994	6.06E-01	0.2546			
148	1.91E+01	-3.14E+01	1.06E+00	0.12	0.004	-0.993	6.66E-01	0.2088			
149	1.85E+01	-3.14E+01	1.00E+00	0.099	-0.005	-0.995	6.84E-01	0.1846			
150	1.80E+01	-3.14E+01	9.64E-01	0.049	-0.026	-0.998	6.61E-01	0.2085			
151	1.75E+01	-3.14E+01	9.55E-01	-0.012	-0.053	-0.999	6.03E-01	0.2969			
152	1.71E+01	-3.14E+01	9.72E-01	-0.072	-0.08	-0.994	5.11E-01	0.4413			
153	1.67E+01	-3.14E+01	1.01E+00	-0.141	-0.114	-0.984	3.92E-01	0.6298			
154	1.65E+01	-3.14E+01	1.06E+00	-0.284	-0.185	-0.941	2.55E-01	0.7484			
155	1.64E+01	-3.14E+01	1.12E+00	-0.655	-0.365	-0.662	1.22E-01	-0.2434			
156	1.64E+01	-3.14E+01	1.21E+00	-0.799	-0.399	0.45	1.87E-01	-3.6469			
157	1.65E+01	-3.14E+01	1.32E+00	-0.485	-0.225	0.845	2.87E-01	-3.1754			
158	1.67E+01	-3.14E+01	1.43E+00	-0.32	-0.139	0.937	4.14E-01	-2.1749			
159	1.71E+01	-3.14E+01	1.52E+00	-0.206	-0.083	0.975	5.23E-01	-1.7767			
160	1.75E+01	-3.14E+01	1.59E+00	-0.101	-0.033	0.994	6.06E-01	-1.5312			
161	1.80E+01	-3.14E+01	1.61E+00	0.003	0.013	1	6.60E-01	-1.2749			
162	1.85E+01	-3.14E+01	1.59E+00	0.097	0.052	0.994	6.83E-01	-0.9631			
163	1.91E+01	-3.14E+01	1.52E+00	0.163	0.077	0.984	6.70E-01	-0.6451			
164	1.96E+01	-3.14E+01	1.43E+00	0.204	0.092	0.975	6.16E-01	-0.3719			
165	2.00E+01	-3.14E+01	1.33E+00	0.222	0.098	0.97	5.23E-01	-0.1656			
166	2.04E+01	-3.14E+01	1.25E+00	0.226	0.099	0.969	3.98E-01	-0.0307			
167	2.06E+01	-3.14E+01	1.19E+00	0.24	0.103	0.965	2.49E-01	0.1205			
168	2.07E+01	-3.14E+01	1.16E+00	0.243	0.104	0.965	8.48E-02	0.2186			
Strip 7											
169	2.03E+01	-3.00E+01	1.10E+00	-0.128	-0.072	-0.989	1.04E-01	0.2778			
170	2.02E+01	-3.00E+01	1.12E+00	-0.109	-0.067	-0.992	3.04E-01	0.342			
171	1.99E+01	-3.00E+01	1.13E+00	0.009	-0.032	-0.999	4.84E-01	0.3626			
172	1.96E+01	-3.00E+01	1.11E+00	0.073	-0.012	-0.997	6.39E-01	0.3214			
173	1.91E+01	-3.00E+01	1.07E+00	0.113	0.001	-0.994	7.59E-01	0.2733			
174	1.86E+01	-3.00E+01	1.01E+00	0.12	0.004	-0.993	8.33E-01	0.2292			
175	1.80E+01	-3.00E+01	9.42E-01	0.099	-0.005	-0.995	8.56E-01	0.206			
176	1.74E+01	-3.00E+01	9.00E-01	0.049	-0.026	-0.998	8.28E-01	0.2298			
177	1.69E+01	-3.00E+01	8.90E-01	-0.012	-0.053	-0.999	7.54E-01	0.3167			
178	1.64E+01	-3.00E+01	9.08E-01	-0.072	-0.08	-0.994	6.40E-01	0.4584			
179	1.60E+01	-3.00E+01	9.47E-01	-0.141	-0.114	-0.984	4.91E-01	0.6429			
180	1.58E+01	-3.00E+01	1.00E+00	-0.284	-0.185	-0.941	3.20E-01	0.7499			
181	1.56E+01	-3.00E+01	1.07E+00	-0.654	-0.365	-0.662	1.53E-01	-0.2811			
182	1.56E+01	-3.00E+01	1.16E+00	-0.799	-0.399	0.449	2.33E-01	-3.7398			
183	1.58E+01	-3.00E+01	1.29E+00	-0.485	-0.225	0.845	3.60E-01	-3.2374			
184	1.60E+01	-3.00E+01	1.40E+00	-0.32	-0.139	0.937	5.18E-01	-2.2166			
185	1.64E+01	-3.00E+01	1.50E+00	-0.206	-0.083	0.975	6.54E-01	-1.8135			
186	1.69E+01	-3.00E+01	1.57E+00	-0.101	-0.033	0.994	7.58E-01	-1.5662			
187	1.74E+01	-3.00E+01	1.60E+00	0.003	0.013	1	8.26E-01	-1.3077			
188	1.80E+01	-3.00E+01	1.57E+00	0.097	0.052	0.994	8.55E-01	-0.9919			
189	1.86E+01	-3.00E+01	1.50E+00	0.163	0.077	0.984	8.38E-01	-0.6682			
190	1.91E+01	-3.00E+01	1.40E+00	0.204	0.092	0.975	7.71E-01	-0.3885			
191	1.96E+01	-3.00E+01	1.29E+00	0.222	0.098	0.97	6.55E-01	-0.1759			
192	1.99E+01	-3.00E+01	1.21E+00	0.226	0.099	0.969	4.98E-01	-0.0358			
193	2.02E+01	-3.00E+01	1.14E+00	0.24	0.103	0.965	3.12E-01	0.1198			
194	2.03E+01	-3.00E+01	1.11E+00	0.243	0.104	0.965	1.06E-01	0.2203			
Strip 8											
195	1.99E+01	-2.84E+01	1.05E+00	-0.128	-0.072	-0.989	1.27E-01	0.2827			
196	1.98E+01	-2.84E+01	1.06E+00	-0.109	-0.067	-0.992	3.72E-01	0.3483			
197	1.95E+01	-2.84E+01	1.07E+00	0.009	-0.032	-0.999	5.92E-01	0.3704			
198	1.91E+01	-2.84E+01	1.06E+00	0.073	-0.012	-0.997	7.82E-01	0.3305			
199	1.86E+01	-2.84E+01	1.01E+00	0.113	0.001	-0.994	9.29E-01	0.2833			
200	1.80E+01	-2.84E+01	9.39E-01	0.12	0.004	-0.993	1.02E+00	0.2398			
201	1.74E+01	-2.84E+01	8.72E-01	0.099	-0.005	-0.995	1.05E+00	0.2167			
202	1.68E+01	-2.84E+01	8.27E-01	0.049	-0.026	-0.998	1.01E+00	0.2397			
203	1.62E+01	-2.84E+01	8.15E-01	-0.012	-0.053	-0.999	9.24E-01	0.3253			
204	1.57E+01	-2.84E+01	8.35E-01	-0.072	-0.08	-0.994	7.84E-01	0.465			
205	1.53E+01	-2.84E+01	8.77E-01	-0.141	-0.114	-0.984	6.01E-01	0.6475			
206	1.50E+01	-2.84E+01	9.36E-01	-0.284	-0.185	-0.941	3.92E-01	0.7528			
207	1.48E+01	-2.84E+01	1.01E+00	-0.654	-0.365	-0.663	1.88E-01	-0.2765			
208	1.48E+01	-2.84E+01	1.11E+00	-0.8	-0.4	0.448	2.86E-01	-3.7419			
209	1.50E+01	-2.84E+01	1.24E+00	-0.486	-0.225	0.845	4.40E-01	-3.2443			
210	1.53E+01	-2.84E+01	1.37E+00	-0.32	-0.14	0.937	6.34E-01	-2.2249			
211	1.57E+01	-2.84E+01	1.48E+00	-0.206	-0.083	0.975	8.01E-01	-1.824			
212	1.62E+01	-2.84E+01	1.55E+00	-0.101	-0.033	0.994	9.28E-01	-1.5785			
213	1.68E+01	-2.84E+01	1.58E+00	0.003	0.013	1	1.01E+00	-1.3208			
214	1.74E+01	-2.84E+01	1.55E+00	0.097	0.052	0.994	1.05E+00	-1.0042			
215	1.80E+01	-2.84E+01	1.47E+00	0.163	0.077	0.984	1.03E+00	-0.6787			
216	1.86E+01	-2.84E+01	1.36E+00	0.204	0.092	0.975	9.45E-01	-0.3965			
217	1.91E+01	-2.84E+01	1.25E+00	0.222	0.098	0.97	8.03E-01	-0.1812			
218	1.95E+01	-2.84E+01	1.16E+00	0.226	0.099	0.969	6.10E-01	-0.0387			
219	1.98E+01	-2.84E+01	1.09E+00	0.24	0.103	0.965	3.82E-01	0.1191			
220	1.99E+01	-2.84E+01	1.05E+00	0.243	0.104	0.965	1.30E-01	0.2208			
Strip 9											
221	1.94E+01	-2.66E+01	9.82E-01	-0.128	-0.072	-0.989	1.53E-01	0.2855			
222	1.92E+01	-2.66E+01	1.00E+00	-0.109	-0.067	-0.992	4.48E-01	0.3517			
223	1.89E+01	-2.66E+01	1.01E+00	0.009	-0.032	-0.999	7.13E-01	0.3746			
224	1.85E+01	-2.66E+01	9.92E-01	0.073	-0.012	-0.997	9.42E-01	0.3352			
225	1.79E+01	-2.66E+01	9.39E-01	0.113	0.001	-0.994	1.12E+00	0.2883			
226	1.73E+01	-2.66E+01	8.66E-01	0.12	0.004	-0.993	1.23E+00	0.2446			
227	1.67E+01	-2.66E+01	7.93E-01	0.099	-0.005	-0.995	1.26E+00	0.2207			
228	1.60E+01	-2.66E+01	7.44E-01	0.049	-0.026	-0.998	1.22E+00	0.2426			
229	1.54E+01	-2.66E+01	7.32E-01	-0.012	-0.053	-0.999	1.11E+00	0.3266			
230	1.48E+01	-2.66E+01	7.53E-01	-0.072	-0.08	-0.994	9.44E-01	0.4647			
231	1.44E+01	-2.66E+01	7.99E-01	-0.141	-0.114	-0.984	7.24E-01	0.6464			
232	1.41E+01	-2.66E+01	8.62E-01	-0.284	-0.185	-0.941	4.72E-01	0.7571			
233	1.39E+01	-2.66E+01	9.37E-01	-0.654	-0.364	-0.663	2.26E-01	-0.24			
234	1.39E+01	-2.66E+01	1.05E+00	-0.8	-0.4	0.447	3.44E-01	-3.6753			
235	1.41E+01	-2.66E+01	1.19E+00	-0.486	-0.226	0.844	5.30E-01	-3.2098			
236	1.44E+01	-2.66E+01	1.33E+00	-0.321	-0.14	0.937	7.63E-01	-2.2086			
237	1.48E+01	-2.66E+01	1.45E+00	-0.206	-0.083	0.975	9.64E-01	-1.8159			
238	1.54E+01	-2.66E+01	1.53E+00	-0.101	-0.033	0.994	1.12E+00	-1.5751			
239	1.60E+01	-2.66E+01	1.56E+00	0.003	0.013	1	1.22E+00	-1.3205			
240	1.67E+01	-2.66E+01	1.53E+00	0.097	0.052	0.994	1.26E+00	-1.0059			
241	1.73E+01	-2.66E+01	1.44E+00	0.163	0.077	0.984	1.24E+00	-0.6811			
242	1.79E+01	-2.66E+01	1.32E+00	0.204	0.092	0.975	1.14E+00	-0.3987			
243	1.85E+01	-2.66E+01	1.20E+00	0.222	0.098	0.97	9.66E-01	-0.1829			
244	1.89E+01	-2.66E+01	1.10E+00	0.226	0.099	0.969	7.34E-01	-0.0397			
245	1.92E+01	-2.66E+01	1.03E+00	0.24	0.103	0.965	4.60E-01	0.1188			
246	1.94E+01	-2.66E+01	9.87E-01	0.243	0.104	0.965	1.57E-01	0.221			
Strip 10											
247	1.88E+01	-2.47E+01	9.11E-01	-0.128	-0.072	-0.989	1.81E-01	0.287			
248	1.87E+01	-2.47E+01	9.31E-01	-0.109	-0.067	-0.992	5.32E-01	0.3537			
249	1.83E+01	-2.47E+01	9.43E-01	0.009	-0.032	-0.999	8.45E-01	0.3769			
250	1.79E+01	-2.47E+01	9.21E-01	0.073	-0.012	-0.997	1.12E+00	0.3374			
251	1.73E+01	-2.47E+01	8.65E-01	0.113	0.001	-0.994	1.33E+00	0.2902			
252	1.66E+01	-2.47E+01	7.85E-01	0.12	0.004	-0.993	1.46E+00	0.2457			
253	1.59E+01	-2.47E+01	7.06E-01	0.099	-0.005	-0.995	1.50E+00	0.2204			
254	1.52E+01	-2.47E+01	6.53E-01	0.049	-0.026	-0.998	1.45E+00	0.2407			
255	1.45E+01	-2.47E+01	6.39E-01	-0.012	-0.053	-0.999	1.32E+00	0.3231			
256	1.39E+01	-2.47E+01	6.63E-01	-0.072	-0.08	-0.994	1.12E+00	0.4597			
257	1.34E+01	-2.47E+01	7.12E-01	-0.141	-0.114	-0.984	8.58E-01	0.6411			
258	1.31E+01	-2.47E+01	7.81E-01	-0.284	-0.184	-0.941	5.59E-01	0.7623			
259	1.29E+01	-2.47E+01	8.62E-01	-0.653	-0.364	-0.664	2.68E-01	-0.1807			
260	1.29E+01	-2.47E+01	9.85E-01	-0.8	-0.4	0.447	4.07E-01	-3.5576			
261	1.31E+01	-2.47E+01	1.14E+00	-0.486	-0.226	0.844	6.28E-01	-3.1442			
262	1.34E+01	-2.47E+01	1.29E+00	-0.321	-0.14	0.937	9.04E-01	-2.1744			
263	1.39E+01	-2.47E+01	1.41E+00	-0.206	-0.083	0.975	1.14E+00	-1.7943			
264	1.45E+01	-2.47E+01	1.50E+00	-0.101	-0.033	0.994	1.33E+00	-1.5607			
265	1.52E+01	-2.47E+01	1.54E+00	0.003	0.013	1	1.44E+00	-1.3112			
266	1.59E+01	-2.47E+01	1.50E+00	0.097	0.052	0.994	1.50E+00	-1.0004			
267	1.66E+01	-2.47E+01	1.41E+00	0.163	0.077	0.984	1.47E+00	-0.6781			
268	1.73E+01	-2.47E+01	1.28E+00	0.204	0.092	0.975	1.35E+00	-0.3974			
269	1.79E+01	-2.47E+01	1.15E+00	0.222	0.098	0.97	1.15E+00	-0.1823			
270	1.83E+01	-2.47E+01	1.04E+00	0.226	0.099	0.969	8.71E-01	-0.0393			
271	1.87E+01	-2.47E+01	9.59E-01	0.24	0.103	0.965	5.46E-01	0.119			
272	1.88E+01	-2.47E+01	9.16E-01	0.243	0.104	0.965	1.86E-01	0.2211			
Strip 11											
273	1.82E+01	-2.26E+01	8.33E-01	-0.128	-0.072	-0.989	2.12E-01	0.288			
274	1.81E+01	-2.26E+01	8.55E-01	-0.109	-0.067	-0.992	6.22E-01	0.3547			
275	1.77E+01	-2.26E+01	8.68E-01	0.009	-0.032	-0.999	9.89E-01	0.3779			
276	1.72E+01	-2.26E+01	8.45E-01	0.073	-0.012	-0.997	1.31E+00	0.3382			
277	1.65E+01	-2.26E+01	7.83E-01	0.113	0.001	-0.994	1.55E+00	0.2901			
278	1.58E+01	-2.26E+01	6.97E-01	0.12	0.004	-0.993	1.70E+00	0.2444			
279	1.50E+01	-2.26E+01	6.11E-01	0.099	-0.005	-0.995	1.75E+00	0.2175			
280	1.42E+01	-2.26E+01	5.54E-01	0.049	-0.026	-0.998	1.69E+00	0.2357			
281	1.35E+01	-2.26E+01	5.39E-01	-0.012	-0.053	-0.999	1.54E+00	0.316			
282	1.29E+01	-2.26E+01	5.65E-01	-0.072	-0.08	-0.994	1.31E+00	0.4511			
283	1.23E+01	-2.26E+01	6.18E-01	-0.14	-0.114	-0.984	1.00E+00	0.6326			
284	1.20E+01	-2.26E+01	6.92E-01	-0.284	-0.184	-0.941	6.55E-01	0.7674			
285	1.18E+01	-2.26E+01	7.81E-01	-0.653	-0.364	-0.664	3.14E-01	-0.1055			
286	1.18E+01	-2.26E+01	9.14E-01	-0.801	-0.4	0.446	4.76E-01	-3.4019			
287	1.20E+01	-2.26E+01	1.08E+00	-0.486	-0.226	0.844	7.34E-01	-3.0549			
288	1.23E+01	-2.26E+01	1.24E+00	-0.321	-0.14	0.937	1.06E+00	-2.1264			
289	1.29E+01	-2.26E+01	1.38E+00	-0.206	-0.083	0.975	1.34E+00	-1.7627			
290	1.35E+01	-2.26E+01	1.48E+00	-0.101	-0.033	0.994	1.55E+00	-1.5384			
291	1.42E+01	-2.26E+01	1.51E+00	0.003	0.013	1	1.69E+00	-1.2955			
292	1.50E+01	-2.26E+01	1.47E+00	0.097	0.052	0.994	1.75E+00	-0.9898			
293	1.58E+01	-2.26E+01	1.37E+00	0.163	0.077	0.984	1.72E+00	-0.6716			
294	1.65E+01	-2.26E+01	1.23E+00	0.204	0.092	0.975	1.58E+00	-0.3935			
295	1.72E+01	-2.26E+01	1.09E+00	0.222	0.098	0.97	1.34E+00	-0.18			
296	1.77E+01	-2.26E+01	9.73E-01	0.226	0.099	0.969	1.02E+00	-0.0381			
297	1.81E+01	-2.26E+01	8.86E-01	0.24	0.103	0.965	6.39E-01	0.1195			
298	1.82E+01	-2.26E+01	8.39E-01	0.243	0.104	0.965	2.17E-01	0.2212			
Strip 12											
299	1.76E+01	-2.03E+01	7.50E-01	-0.128	-0.072	-0.989	2.45E-01	0.2885			
300	1.74E+01	-2.03E+01	7.74E-01	-0.109	-0.067	-0.992	7.19E-01	0.3552			
301	1.70E+01	-2.03E+01	7.88E-01	0.009	-0.032	-0.999	1.14E+00	0.3782			
302	1.64E+01	-2.03E+01	7.63E-01	0.073	-0.012	-0.997	1.51E+00	0.3379			
303	1.57E+01	-2.03E+01	6.96E-01	0.113	0.001	-0.994	1.79E+00	0.2889			
304	1.49E+01	-2.03E+01	6.03E-01	0.12	0.004	-0.993	1.97E+00	0.2415			
305	1.41E+01	-2.03E+01	5.10E-01	0.099	-0.005	-0.995	2.02E+00	0.2124			
306	1.33E+01	-2.03E+01	4.47E-01	0.049	-0.026	-0.998	1.96E+00	0.2282			
307	1.25E+01	-2.03E+01	4.32E-01	-0.012	-0.053	-0.999	1.78E+00	0.3063			
308	1.18E+01	-2.03E+01	4.60E-01	-0.072	-0.08	-0.994	1.51E+00	0.4396			
309	1.12E+01	-2.03E+01	5.17E-01	-0.14	-0.114	-0.984	1.16E+00	0.6213			
310	1.08E+01	-2.03E+01	5.98E-01	-0.284	-0.184	-0.941	7.56E-01	0.7718			
311	1.06E+01	-2.03E+01	6.93E-01	-0.653	-0.364	-0.665	3.63E-01	-0.0193			
312	1.06E+01	-2.03E+01	8.38E-01	-0.801	-0.4	0.445	5.50E-01	-3.2166			
313	1.08E+01	-2.03E+01	1.02E+00	-0.487	-0.226	0.844	8.47E-01	-2.9466			
314	1.12E+01	-2.03E+01	1.19E+00	-0.321	-0.14	0.937	1.22E+00	-2.0673			
315	1.18E+01	-2.03E+01	1.34E+00	-0.207	-0.083	0.975	1.55E+00	-1.7232			
316	1.25E+01	-2.03E+01	1.45E+00	-0.101	-0.033	0.994	1.79E+00	-1.5098			
317	1.33E+01	-2.03E+01	1.49E+00	0.003	0.013	1	1.95E+00	-1.2748			
318	1.41E+01	-2.03E+01	1.44E+00	0.097	0.052	0.994	2.02E+00	-0.9757			
319	1.49E+01	-2.03E+01	1.33E+00	0.163	0.077	0.984	1.98E+00	-0.6624			
320	1.57E+01	-2.03E+01	1.18E+00	0.204	0.092	0.975	1.82E+00	-0.3878			
321	1.64E+01	-2.03E+01	1.03E+00	0.222	0.098	0.97	1.55E+00	-0.1767			
322	1.70E+01	-2.03E+01	9.02E-01	0.226	0.099	0.969	1.18E+00	-0.0363			
323	1.74E+01	-2.03E+01	8.07E-01	0.24	0.103	0.965	7.38E-01	0.1202			
324	1.76E+01	-2.03E+01	7.57E-01	0.243	0.104	0.965	2.51E-01	0.2212			
Strip 13											
325	1.69E+01	-1.79E+01	6.62E-01	-0.128	-0.072	-0.989	2.80E-01	0.2887			
326	1.67E+01	-1.79E+01	6.88E-01	-0.109	-0.067	-0.992	8.20E-01	0.3554			
327	1.63E+01	-1.79E+01	7.03E-01	0.009	-0.032	-0.999	1.30E+00	0.378			
328	1.57E+01	-1.79E+01	6.76E-01	0.073	-0.012	-0.997	1.72E+00	0.337			
329	1.49E+01	-1.79E+01	6.04E-01	0.113	0.001	-0.994	2.05E+00	0.2868			
330	1.41E+01	-1.79E+01	5.03E-01	0.12	0.004	-0.993	2.25E+00	0.2375			
331	1.31E+01	-1.79E+01	4.02E-01	0.099	-0.005	-0.995	2.31E+00	0.2058			
332	1.22E+01	-1.79E+01	3.35E-01	0.049	-0.026	-0.998	2.23E+00	0.2187			
333	1.14E+01	-1.79E+01	3.18E-01	-0.012	-0.053	-0.999	2.04E+00	0.2943			
334	1.06E+01	-1.79E+01	3.48E-01	-0.072	-0.08	-0.994	1.73E+00	0.4256			
335	1.00E+01	-1.79E+01	4.10E-01	-0.14	-0.114	-0.984	1.33E+00	0.6071			
336	9.57E+00	-1.79E+01	4.97E-01	-0.284	-0.184	-0.941	8.64E-01	0.7747			
337	9.35E+00	-1.79E+01	6.01E-01	-0.652	-0.364	-0.665	4.14E-01	0.0744			
338	9.35E+00	-1.79E+01	7.57E-01	-0.801	-0.401	0.444	6.28E-01	-3.0066			
339	9.57E+00	-1.79E+01	9.53E-01	-0.487	-0.226	0.844	9.67E-01	-2.8219			
340	1.00E+01	-1.79E+01	1.14E+00	-0.321	-0.14	0.937	1.39E+00	-1.9988			
341	1.06E+01	-1.79E+01	1.30E+00	-0.207	-0.083	0.975	1.76E+00	-1.6768			
342	1.14E+01	-1.79E+01	1.42E+00	-0.101	-0.033	0.994	2.04E+00	-1.4761			
343	1.22E+01	-1.79E+01	1.46E+00	0.003	0.013	1	2.23E+00	-1.2502			
344	1.31E+01	-1.79E+01	1.41E+00	0.097	0.052	0.994	2.31E+00	-0.9586			
345	1.41E+01	-1.79E+01	1.29E+00	0.163	0.077	0.984	2.26E+00	-0.6512			
346	1.49E+01	-1.79E+01	1.13E+00	0.204	0.092	0.975	2.08E+00	-0.3808			
347	1.57E+01	-1.79E+01	9.66E-01	0.222	0.098	0.97	1.77E+00	-0.1726			
348	1.63E+01	-1.79E+01	8.26E-01	0.226	0.099	0.969	1.34E+00	-0.034			
349	1.67E+01	-1.79E+01	7.24E-01	0.24	0.103	0.965	8.42E-01	0.1209			
350	1.69E+01	-1.79E+01	6.69E-01	0.243	0.104	0.965	2.87E-01	0.221			
Strip 14											
351	1.62E+01	-1.53E+01	5.70E-01	-0.128	-0.072	-0.989	3.16E-01	0.2888			
352	1.60E+01	-1.53E+01	5.97E-01	-0.109	-0.067	-0.992	9.26E-01	0.3553			
353	1.55E+01	-1.53E+01	6.14E-01	0.009	-0.032	-0.999	1.47E+00	0.3775			
354	1.48E+01	-1.53E+01	5.84E-01	0.073	-0.012	-0.997	1.94E+00	0.3356			
355	1.40E+01	-1.53E+01	5.07E-01	0.113	0.001	-0.994	2.31E+00	0.284			
356	1.31E+01	-1.53E+01	3.98E-01	0.12	0.004	-0.993	2.53E+00	0.2325			
357	1.21E+01	-1.53E+01	2.89E-01	0.099	-0.005	-0.995	2.60E+00	0.1979			
358	1.11E+01	-1.53E+01	2.16E-01	0.049	-0.026	-0.998	2.52E+00	0.2075			
359	1.02E+01	-1.53E+01	1.98E-01	-0.012	-0.053	-0.999	2.30E+00	0.2801			
360	9.39E+00	-1.53E+01	2.30E-01	-0.072	-0.08	-0.994	1.95E+00	0.4089			
361	8.74E+00	-1.53E+01	2.98E-01	-0.14	-0.114	-0.984	1.50E+00	0.5899			
362	8.27E+00	-1.53E+01	3.91E-01	-0.284	-0.184	-0.941	9.75E-01	0.7751			
363	8.04E+00	-1.53E+01	5.03E-01	-0.652	-0.364	-0.665	4.68E-01	0.1736			
364	8.04E+00	-1.53E+01	6.72E-01	-0.802	-0.401	0.444	7.08E-01	-2.7742			
365	8.27E+00	-1.53E+01	8.83E-01	-0.487	-0.226	0.844	1.09E+00	-2.6816			
366	8.74E+00	-1.53E+01	1.08E+00	-0.321	-0.14	0.937	1.57E+00	-1.921			
367	9.39E+00	-1.53E+01	1.26E+00	-0.207	-0.083	0.975	1.99E+00	-1.624			
368	1.02E+01	-1.53E+01	1.38E+00	-0.101	-0.033	0.994	2.31E+00	-1.4374			
369	1.11E+01	-1.53E+01	1.43E+00	0.003	0.013	1	2.51E+00	-1.2219			
370	1.21E+01	-1.53E+01	1.38E+00	0.097	0.052	0.994	2.60E+00	-0.9389			
371	1.31E+01	-1.53E+01	1.25E+00	0.163	0.077	0.984	2.55E+00	-0.6384			
372	1.40E+01	-1.53E+01	1.08E+00	0.204	0.092	0.975	2.35E+00	-0.3728			
373	1.48E+01	-1.53E+01	8.98E-01	0.222	0.098	0.97	2.00E+00	-0.1679			
374	1.55E+01	-1.53E+01	7.46E-01	0.226	0.099	0.969	1.52E+00	-0.0314			
375	1.60E+01	-1.53E+01	6.36E-01	0.24	0.103	0.965	9.51E-01	0.1217			
376	1.62E+01	-1.53E+01	5.77E-01	0.243	0.104	0.965	3.23E-01	0.2209			
Strip 15											
377	1.55E+01	-1.27E+01	4.74E-01	-0.128	-0.072	-0.989	3.52E-01	0.2886			
378	1.52E+01	-1.27E+01	5.03E-01	-0.109	-0.067	-0.992	1.03E+00	0.3551			
379	1.47E+01	-1.27E+01	5.21E-01	0.009	-0.032	-0.999	1.64E+00	0.3768			
380	1.40E+01	-1.27E+01	4.89E-01	0.073	-0.012	-0.997	2.17E+00	0.3339			
381	1.31E+01	-1.27E+01	4.06E-01	0.113	0.001	-0.994	2.58E+00	0.2806			
382	1.21E+01	-1.27E+01	2.88E-01	0.12	0.004	-0.993	2.83E+00	0.2266			
383	1.11E+01	-1.27E+01	1.72E-01	0.099	-0.005	-0.995	2.91E+00	0.1887			
384	1.00E+01	-1.27E+01	9.27E-02	0.049	-0.026	-0.998	2.81E+00	0.1946			
385	9.00E+00	-1.27E+01	7.33E-02	-0.012	-0.053	-0.999	2.56E+00	0.2637			
386	8.13E+00	-1.27E+01	1.08E-01	-0.072	-0.08	-0.994	2.18E+00	0.3895			
387	7.42E+00	-1.27E+01	1.81E-01	-0.14	-0.114	-0.984	1.67E+00	0.5693			
388	6.92E+00	-1.27E+01	2.82E-01	-0.284	-0.184	-0.941	1.09E+00	0.7721			
389	6.67E+00	-1.27E+01	4.02E-01	-0.652	-0.363	-0.666	5.22E-01	0.277			
390	6.67E+00	-1.27E+01	5.83E-01	-0.802	-0.401	0.443	7.90E-01	-2.5183			
391	6.92E+00	-1.27E+01	8.11E-01	-0.487	-0.226	0.843	1.22E+00	-2.5242			
392	7.42E+00	-1.27E+01	1.03E+00	-0.321	-0.14	0.937	1.75E+00	-1.8334			
393	8.13E+00	-1.27E+01	1.22E+00	-0.207	-0.083	0.975	2.22E+00	-1.5645			
394	9.00E+00	-1.27E+01	1.35E+00	-0.101	-0.033	0.994	2.57E+00	-1.3939			
395	1.00E+01	-1.27E+01	1.40E+00	0.003	0.013	1	2.81E+00	-1.1903			
396	1.11E+01	-1.27E+01	1.34E+00	0.097	0.052	0.994	2.91E+00	-0.9171			
397	1.21E+01	-1.27E+01	1.20E+00	0.163	0.077	0.984	2.85E+00	-0.6242			
398	1.31E+01	-1.27E+01	1.02E+00	0.204	0.092	0.975	2.62E+00	-0.3642			
399	1.40E+01	-1.27E+01	8.27E-01	0.222	0.098	0.97	2.23E+00	-0.163			
400	1.47E+01	-1.27E+01	6.63E-01	0.226	0.099	0.969	1.69E+00	-0.0289			
401	1.52E+01	-1.27E+01	5.45E-01	0.24	0.103	0.965	1.06E+00	0.1223			
402	1.55E+01	-1.27E+01	4.82E-01	0.242	0.104	0.965	3.61E-01	0.2203			
Strip 16											
403	1.47E+01	-9.96E+00	3.74E-01	-0.128	-0.072	-0.989	3.89E-01	0.2882			
404	1.44E+01	-9.96E+00	4.06E-01	-0.109	-0.067	-0.992	1.14E+00	0.3547			
405	1.39E+01	-9.96E+00	4.25E-01	0.009	-0.032	-0.999	1.81E+00	0.3758			
406	1.31E+01	-9.96E+00	3.91E-01	0.073	-0.012	-0.997	2.40E+00	0.3319			
407	1.22E+01	-9.96E+00	3.01E-01	0.113	0.001	-0.994	2.84E+00	0.2769			
408	1.11E+01	-9.96E+00	1.75E-01	0.12	0.004	-0.993	3.12E+00	0.22			
409	9.97E+00	-9.96E+00	4.99E-02	0.099	-0.005	-0.995	3.21E+00	0.1783			
410	8.83E+00	-9.96E+00	-3.47E-02	0.049	-0.026	-0.998	3.10E+00	0.18			
411	7.76E+00	-9.96E+00	-5.56E-02	-0.012	-0.053	-0.999	2.83E+00	0.2449			
412	6.82E+00	-9.96E+00	-1.81E-02	-0.072	-0.08	-0.994	2.40E+00	0.3669			
413	6.06E+00	-9.96E+00	5.97E-02	-0.14	-0.114	-0.984	1.84E+00	0.5444			
414	5.53E+00	-9.96E+00	1.68E-01	-0.284	-0.184	-0.941	1.20E+00	0.7644			
415	5.25E+00	-9.96E+00	2.97E-01	-0.652	-0.363	-0.666	5.77E-01	0.3842			
416	5.25E+00	-9.96E+00	4.92E-01	-0.802	-0.401	0.443	8.72E-01	-2.2339			
417	5.53E+00	-9.96E+00	7.36E-01	-0.487	-0.226	0.843	1.34E+00	-2.3455			
418	6.06E+00	-9.96E+00	9.67E-01	-0.321	-0.14	0.937	1.94E+00	-1.7332			
419	6.82E+00	-9.96E+00	1.17E+00	-0.207	-0.083	0.975	2.45E+00	-1.4965			
420	7.76E+00	-9.96E+00	1.31E+00	-0.101	-0.033	0.994	2.84E+00	-1.3448			
421	8.83E+00	-9.96E+00	1.37E+00	0.003	0.013	1	3.10E+00	-1.1553			
422	9.97E+00	-9.96E+00	1.31E+00	0.097	0.052	0.994	3.21E+00	-0.8936			
423	1.11E+01	-9.96E+00	1.16E+00	0.163	0.077	0.984	3.15E+00	-0.6097			
424	1.22E+01	-9.96E+00	9.58E-01	0.204	0.092	0.975	2.90E+00	-0.3557			
425	1.31E+01	-9.96E+00	7.53E-01	0.222	0.098	0.97	2.46E+00	-0.1583			
426	1.39E+01	-9.96E+00	5.78E-01	0.226	0.099	0.969	1.87E+00	-0.0267			
427	1.44E+01	-9.96E+00	4.51E-01	0.239	0.103	0.965	1.17E+00	0.1224			
428	1.47E+01	-9.96E+00	3.83E-01	0.242	0.104	0.965	3.99E-01	0.2193			
Strip 17											
429	1.39E+01	-7.16E+00	2.72E-01	-0.128	-0.072	-0.989	4.25E-01	0.2875			
430	1.36E+01	-7.16E+00	3.06E-01	-0.109	-0.067	-0.992	1.25E+00	0.354			
431	1.30E+01	-7.16E+00	3.27E-01	0.009	-0.032	-0.999	1.98E+00	0.3748			
432	1.22E+01	-7.16E+00	2.90E-01	0.073	-0.012	-0.997	2.62E+00	0.3298			
433	1.12E+01	-7.16E+00	1.94E-01	0.113	0.001	-0.994	3.11E+00	0.2727			
434	1.01E+01	-7.16E+00	5.94E-02	0.121	0.004	-0.993	3.41E+00	0.2128			
435	8.85E+00	-7.16E+00	-7.47E-02	0.099	-0.005	-0.995	3.51E+00	0.1669			
436	7.63E+00	-7.17E+00	-1.65E-01	0.049	-0.026	-0.998	3.39E+00	0.1638			
437	6.48E+00	-7.17E+00	-1.88E-01	-0.012	-0.053	-0.999	3.09E+00	0.2238			
438	5.48E+00	-7.16E+00	-1.48E-01	-0.072	-0.08	-0.994	2.63E+00	0.3409			
439	4.66E+00	-7.16E+00	-6.43E-02	-0.14	-0.114	-0.984	2.01E+00	0.5141			
440	4.10E+00	-7.16E+00	5.16E-02	-0.284	-0.184	-0.941	1.31E+00	0.7498			
441	3.80E+00	-7.16E+00	1.90E-01	-0.651	-0.363	-0.666	6.30E-01	0.4961			
442	3.80E+00	-7.16E+00	3.98E-01	-0.802	-0.401	0.442	9.53E-01	-1.9086			
443	4.10E+00	-7.16E+00	6.60E-01	-0.487	-0.226	0.843	1.47E+00	-2.1339			
444	4.66E+00	-7.16E+00	9.07E-01	-0.321	-0.14	0.937	2.12E+00	-1.6134			
445	5.48E+00	-7.16E+00	1.13E+00	-0.207	-0.083	0.975	2.68E+00	-1.4157			
446	6.48E+00	-7.16E+00	1.28E+00	-0.101	-0.033	0.994	3.10E+00	-1.2881			
447	7.63E+00	-7.16E+00	1.33E+00	0.003	0.013	1	3.38E+00	-1.1171			
448	8.85E+00	-7.16E+00	1.27E+00	0.097	0.052	0.994	3.51E+00	-0.8702			
449	1.01E+01	-7.16E+00	1.11E+00	0.163	0.077	0.984	3.44E+00	-0.5967			
450	1.12E+01	-7.16E+00	8.97E-01	0.204	0.092	0.975	3.17E+00	-0.3493			
451	1.22E+01	-7.16E+00	6.78E-01	0.222	0.098	0.97	2.69E+00	-0.1556			
452	1.30E+01	-7.16E+00	4.90E-01	0.226	0.099	0.969	2.04E+00	-0.0261			
453	1.36E+01	-7.16E+00	3.54E-01	0.239	0.103	0.965	1.28E+00	0.1214			
454	1.39E+01	-7.16E+00	2.81E-01	0.242	0.104	0.965	4.36E-01	0.2174			
Strip 18											
455	1.31E+01	-4.32E+00	1.69E-01	-0.128	-0.072	-0.989	4.59E-01	0.2863			
456	1.28E+01	-4.32E+00	2.05E-01	-0.109	-0.067	-0.992	1.35E+00	0.3531			
457	1.22E+01	-4.32E+00	2.27E-01	0.009	-0.032	-0.999	2.14E+00	0.3735			
458	1.13E+01	-4.32E+00	1.87E-01	0.073	-0.012	-0.997	2.83E+00	0.3272			
459	1.02E+01	-4.32E+00	8.51E-02	0.113	0.001	-0.994	3.36E+00	0.268			
460	9.00E+00	-4.32E+00	-5.85E-02	0.121	0.004	-0.993	3.69E+00	0.2049			
461	7.71E+00	-4.32E+00	-2.02E-01	0.099	-0.005	-0.995	3.79E+00	0.1549			
462	6.41E+00	-4.32E+00	-2.98E-01	0.049	-0.026	-0.998	3.67E+00	0.1472			
463	5.19E+00	-4.32E+00	-3.22E-01	-0.012	-0.053	-0.999	3.34E+00	0.202			
464	4.11E+00	-4.32E+00	-2.79E-01	-0.072	-0.08	-0.994	2.84E+00	0.3128			
465	3.25E+00	-4.32E+00	-1.90E-01	-0.14	-0.114	-0.984	2.18E+00	0.4787			
466	2.64E+00	-4.32E+00	-6.68E-02	-0.283	-0.184	-0.941	1.42E+00	0.7268			
467	2.33E+00	-4.32E+00	8.09E-02	-0.651	-0.363	-0.666	6.82E-01	0.6182			
468	2.33E+00	-4.32E+00	3.03E-01	-0.802	-0.401	0.442	1.03E+00	-1.5125			
469	2.64E+00	-4.32E+00	5.82E-01	-0.488	-0.226	0.843	1.59E+00	-1.8614			
470	3.25E+00	-4.32E+00	8.45E-01	-0.321	-0.14	0.937	2.29E+00	-1.4549			
471	4.11E+00	-4.32E+00	1.08E+00	-0.207	-0.083	0.975	2.90E+00	-1.3101			
472	5.19E+00	-4.32E+00	1.24E+00	-0.101	-0.033	0.994	3.36E+00	-1.2181			
473	6.41E+00	-4.32E+00	1.30E+00	0.003	0.013	1	3.66E+00	-1.0758			
474	7.71E+00	-4.32E+00	1.23E+00	0.097	0.052	0.994	3.79E+00	-0.8514			
475	9.00E+00	-4.32E+00	1.06E+00	0.163	0.077	0.984	3.72E+00	-0.592			
476	1.02E+01	-4.32E+00	8.35E-01	0.204	0.092	0.975	3.42E+00	-0.3511			
477	1.13E+01	-4.32E+00	6.01E-01	0.222	0.098	0.97	2.91E+00	-0.1591			
478	1.22E+01	-4.32E+00	4.01E-01	0.226	0.099	0.969	2.21E+00	-0.0296			
479	1.28E+01	-4.32E+00	2.56E-01	0.239	0.103	0.965	1.39E+00	0.1179			
480	1.31E+01	-4.32E+00	1.78E-01	0.242	0.103	0.965	4.71E-01	0.2139			
Strip 19											
481	1.23E+01	-1.44E+00	6.38E-02	-0.128	-0.072	-0.989	4.92E-01	0.2864			
482	1.19E+01	-1.44E+00	1.02E-01	-0.109	-0.067	-0.992	1.44E+00	0.353			
483	1.13E+01	-1.44E+00	1.26E-01	0.009	-0.032	-0.999	2.29E+00	0.372			
484	1.04E+01	-1.44E+00	8.37E-02	0.073	-0.012	-0.997	3.03E+00	0.3209			
485	9.23E+00	-1.44E+00	-2.49E-02	0.113	0.001	-0.994	3.60E+00	0.2565			
486	7.93E+00	-1.44E+00	-1.78E-01	0.121	0.004	-0.993	3.95E+00	0.1909			
487	6.55E+00	-1.44E+00	-3.30E-01	0.099	-0.005	-0.995	4.06E+00	0.1423			
488	5.17E+00	-1.44E+00	-4.32E-01	0.049	-0.026	-0.998	3.93E+00	0.1381			
489	3.88E+00	-1.44E+00	-4.58E-01	-0.012	-0.053	-0.999	3.58E+00	0.1945			
490	2.73E+00	-1.44E+00	-4.12E-01	-0.072	-0.08	-0.994	3.04E+00	0.3019			
491	1.81E+00	-1.44E+00	-3.18E-01	-0.14	-0.114	-0.984	2.33E+00	0.4561			
492	1.17E+00	-1.44E+00	-1.86E-01	-0.283	-0.184	-0.941	1.52E+00	0.6958			
493	8.35E-01	-1.44E+00	-2.94E-02	-0.651	-0.363	-0.667	7.30E-01	0.7342			
494	8.35E-01	-1.44E+00	2.06E-01	-0.802	-0.401	0.442	1.10E+00	-0.9569			
495	1.17E+00	-1.44E+00	5.03E-01	-0.488	-0.227	0.843	1.70E+00	-1.4135			
496	1.81E+00	-1.44E+00	7.83E-01	-0.322	-0.14	0.936	2.45E+00	-1.1698			
497	2.73E+00	-1.44E+00	1.03E+00	-0.207	-0.083	0.975	3.10E+00	-1.1219			
498	3.88E+00	-1.44E+00	1.20E+00	-0.101	-0.033	0.994	3.59E+00	-1.1125			
499	5.17E+00	-1.44E+00	1.27E+00	0.003	0.013	1	3.92E+00	-1.0319			
500	6.55E+00	-1.44E+00	1.20E+00	0.097	0.052	0.994	4.06E+00	-0.8545			
501	7.93E+00	-1.44E+00	1.02E+00	0.163	0.077	0.984	3.98E+00	-0.6207			
502	9.23E+00	-1.44E+00	7.73E-01	0.204	0.092	0.975	3.67E+00	-0.385			
503	1.04E+01	-1.44E+00	5.23E-01	0.222	0.098	0.97	3.11E+00	-0.1864			
504	1.13E+01	-1.44E+00	3.11E-01	0.226	0.099	0.969	2.37E+00	-0.0475			
505	1.19E+01	-1.44E+00	1.57E-01	0.239	0.103	0.965	1.48E+00	0.1077			
506	1.23E+01	-1.44E+00	7.41E-02	0.242	0.103	0.965	5.04E-01	0.2071			
Strip 20											
507	1.23E+01	1.44E+00	6.38E-02	-0.128	0.072	-0.989	4.92E-01	0.2864			
508	1.19E+01	1.44E+00	1.02E-01	-0.109	0.067	-0.992	1.44E+00	0.353			
509	1.13E+01	1.44E+00	1.26E-01	0.009	0.032	-0.999	2.29E+00	0.372			
510	1.04E+01	1.44E+00	8.37E-02	0.073	0.012	-0.997	3.03E+00	0.3209			
511	9.23E+00	1.44E+00	-2.49E-02	0.113	-0.001	-0.994	3.60E+00	0.2565			
512	7.93E+00	1.44E+00	-1.78E-01	0.121	-0.004	-0.993	3.95E+00	0.1909			
513	6.55E+00	1.44E+00	-3.30E-01	0.099	0.005	-0.995	4.06E+00	0.1423			
514	5.17E+00	1.44E+00	-4.32E-01	0.049	0.026	-0.998	3.93E+00	0.1381			
515	3.88E+00	1.44E+00	-4.58E-01	-0.012	0.053	-0.999	3.58E+00	0.1945			
516	2.73E+00	1.44E+00	-4.12E-01	-0.072	0.08	-0.994	3.04E+00	0.3019			
517	1.81E+00	1.44E+00	-3.18E-01	-0.14	0.114	-0.984	2.33E+00	0.4561			
518	1.17E+00	1.44E+00	-1.86E-01	-0.283	0.184	-0.941	1.52E+00	0.6958			
519	8.35E-01	1.44E+00	-2.94E-02	-0.651	0.363	-0.667	7.30E-01	0.7342			
520	8.35E-01	1.44E+00	2.06E-01	-0.802	0.401	0.442	1.10E+00	-0.9569			
521	1.17E+00	1.44E+00	5.03E-01	-0.488	0.227	0.843	1.70E+00	-1.4135			
522	1.81E+00	1.44E+00	7.83E-01	-0.322	0.14	0.936	2.45E+00	-1.1698			
523	2.73E+00	1.44E+00	1.03E+00	-0.207	0.083	0.975	3.10E+00	-1.1219			
524	3.88E+00	1.44E+00	1.20E+00	-0.101	0.033	0.994	3.59E+00	-1.1125			
525	5.17E+00	1.44E+00	1.27E+00	0.003	-0.013	1	3.92E+00	-1.0319			
526	6.55E+00	1.44E+00	1.20E+00	0.097	-0.052	0.994	4.06E+00	-0.8545			
527	7.93E+00	1.44E+00	1.02E+00	0.163	-0.077	0.984	3.98E+00	-0.6207			
528	9.23E+00	1.44E+00	7.73E-01	0.204	-0.092	0.975	3.67E+00	-0.385			
529	1.04E+01	1.44E+00	5.23E-01	0.222	-0.098	0.97	3.11E+00	-0.1864			
530	1.13E+01	1.44E+00	3.11E-01	0.226	-0.099	0.969	2.37E+00	-0.0475			
531	1.19E+01	1.44E+00	1.57E-01	0.239	-0.103	0.965	1.48E+00	0.1077			
532	1.23E+01	1.44E+00	7.41E-02	0.242	-0.103	0.965	5.04E-01	0.2071			
Strip 21											
533	1.31E+01	4.32E+00	1.69E-01	-0.128	0.072	-0.989	4.59E-01	0.2863			
534	1.28E+01	4.32E+00	2.05E-01	-0.109	0.067	-0.992	1.35E+00	0.3531			
535	1.22E+01	4.32E+00	2.27E-01	0.009	0.032	-0.999	2.14E+00	0.3735			
536	1.13E+01	4.32E+00	1.87E-01	0.073	0.012	-0.997	2.83E+00	0.3272			
537	1.02E+01	4.32E+00	8.51E-02	0.113	-0.001	-0.994	3.36E+00	0.268			
538	9.00E+00	4.32E+00	-5.85E-02	0.121	-0.004	-0.993	3.69E+00	0.2049			
539	7.71E+00	4.32E+00	-2.02E-01	0.099	0.005	-0.995	3.79E+00	0.1549			
540	6.41E+00	4.32E+00	-2.98E-01	0.049	0.026	-0.998	3.67E+00	0.1472			
541	5.19E+00	4.32E+00	-3.22E-01	-0.012	0.053	-0.999	3.34E+00	0.202			
542	4.11E+00	4.32E+00	-2.79E-01	-0.072	0.08	-0.994	2.84E+00	0.3128			
543	3.25E+00	4.32E+00	-1.90E-01	-0.14	0.114	-0.984	2.18E+00	0.4787			
544	2.64E+00	4.32E+00	-6.68E-02	-0.283	0.184	-0.941	1.42E+00	0.7268			
545	2.33E+00	4.32E+00	8.09E-02	-0.651	0.363	-0.666	6.82E-01	0.6182			
546	2.33E+00	4.32E+00	3.03E-01	-0.802	0.401	0.442	1.03E+00	-1.5125			
547	2.64E+00	4.32E+00	5.82E-01	-0.488	0.226	0.843	1.59E+00	-1.8614			
548	3.25E+00	4.32E+00	8.45E-01	-0.321	0.14	0.937	2.29E+00	-1.4549			
549	4.11E+00	4.32E+00	1.08E+00	-0.207	0.083	0.975	2.90E+00	-1.3101			
550	5.19E+00	4.32E+00	1.24E+00	-0.101	0.033	0.994	3.36E+00	-1.2181			
551	6.41E+00	4.32E+00	1.30E+00	0.003	-0.013	1	3.66E+00	-1.0758			
552	7.71E+00	4.32E+00	1.23E+00	0.097	-0.052	0.994	3.79E+00	-0.8514			
553	9.00E+00	4.32E+00	1.06E+00	0.163	-0.077	0.984	3.72E+00	-0.592			
554	1.02E+01	4.32E+00	8.35E-01	0.204	-0.092	0.975	3.42E+00	-0.3511			
555	1.13E+01	4.32E+00	6.01E-01	0.222	-0.098	0.97	2.91E+00	-0.1591			
556	1.22E+01	4.32E+00	4.01E-01	0.226	-0.099	0.969	2.21E+00	-0.0296			
557	1.28E+01	4.32E+00	2.56E-01	0.239	-0.103	0.965	1.39E+00	0.1179			
558	1.31E+01	4.32E+00	1.78E-01	0.242	-0.103	0.965	4.71E-01	0.2139			
Strip 22											
559	1.39E+01	7.16E+00	2.72E-01	-0.128	0.072	-0.989	4.25E-01	0.2875			
560	1.36E+01	7.16E+00	3.06E-01	-0.109	0.067	-0.992	1.25E+00	0.354			
561	1.30E+01	7.16E+00	3.27E-01	0.009	0.032	-0.999	1.98E+00	0.3748			
562	1.22E+01	7.16E+00	2.90E-01	0.073	0.012	-0.997	2.62E+00	0.3298			
563	1.12E+01	7.16E+00	1.94E-01	0.113	-0.001	-0.994	3.11E+00	0.2727			
564	1.01E+01	7.16E+00	5.94E-02	0.121	-0.004	-0.993	3.41E+00	0.2128			
565	8.85E+00	7.16E+00	-7.47E-02	0.099	0.005	-0.995	3.51E+00	0.1669			
566	7.63E+00	7.17E+00	-1.65E-01	0.049	0.026	-0.998	3.39E+00	0.1638			
567	6.48E+00	7.17E+00	-1.88E-01	-0.012	0.053	-0.999	3.09E+00	0.2238			
568	5.48E+00	7.16E+00	-1.48E-01	-0.072	0.08	-0.994	2.63E+00	0.3409			
569	4.66E+00	7.16E+00	-6.43E-02	-0.14	0.114	-0.984	2.01E+00	0.5141			
570	4.10E+00	7.16E+00	5.16E-02	-0.284	0.184	-0.941	1.31E+00	0.7498			
571	3.80E+00	7.16E+00	1.90E-01	-0.651	0.363	-0.666	6.30E-01	0.4961			
572	3.80E+00	7.16E+00	3.98E-01	-0.802	0.401	0.442	9.53E-01	-1.9086			
573	4.10E+00	7.16E+00	6.60E-01	-0.487	0.226	0.843	1.47E+00	-2.1339			
574	4.66E+00	7.16E+00	9.07E-01	-0.321	0.14	0.937	2.12E+00	-1.6134			
575	5.48E+00	7.16E+00	1.13E+00	-0.207	0.083	0.975	2.68E+00	-1.4157			
576	6.48E+00	7.16E+00	1.28E+00	-0.101	0.033	0.994	3.10E+00	-1.2881			
577	7.63E+00	7.16E+00	1.33E+00	0.003	-0.013	1	3.38E+00	-1.1171			
578	8.85E+00	7.16E+00	1.27E+00	0.097	-0.052	0.994	3.51E+00	-0.8702			
579	1.01E+01	7.16E+00	1.11E+00	0.163	-0.077	0.984	3.44E+00	-0.5967			
580	1.12E+01	7.16E+00	8.97E-01	0.204	-0.092	0.975	3.17E+00	-0.3493			
581	1.22E+01	7.16E+00	6.78E-01	0.222	-0.098	0.97	2.69E+00	-0.1556			
582	1.30E+01	7.16E+00	4.90E-01	0.226	-0.099	0.969	2.04E+00	-0.0261			
583	1.36E+01	7.16E+00	3.54E-01	0.239	-0.103	0.965	1.28E+00	0.1214			
584	1.39E+01	7.16E+00	2.81E-01	0.242	-0.104	0.965	4.36E-01	0.2174			
Strip 23											
585	1.47E+01	9.96E+00	3.74E-01	-0.128	0.072	-0.989	3.89E-01	0.2882			
586	1.44E+01	9.96E+00	4.06E-01	-0.109	0.067	-0.992	1.14E+00	0.3547			
587	1.39E+01	9.96E+00	4.25E-01	0.009	0.032	-0.999	1.81E+00	0.3758			
588	1.31E+01	9.96E+00	3.91E-01	0.073	0.012	-0.997	2.40E+00	0.3319			
589	1.22E+01	9.96E+00	3.01E-01	0.113	-0.001	-0.994	2.84E+00	0.2769			
590	1.11E+01	9.96E+00	1.75E-01	0.12	-0.004	-0.993	3.12E+00	0.22			
591	9.97E+00	9.96E+00	4.99E-02	0.099	0.005	-0.995	3.21E+00	0.1783			
592	8.83E+00	9.96E+00	-3.47E-02	0.049	0.026	-0.998	3.10E+00	0.18			
593	7.76E+00	9.96E+00	-5.56E-02	-0.012	0.053	-0.999	2.83E+00	0.2449			
594	6.82E+00	9.96E+00	-1.81E-02	-0.072	0.08	-0.994	2.40E+00	0.3669			
595	6.06E+00	9.96E+00	5.97E-02	-0.14	0.114	-0.984	1.84E+00	0.5444			
596	5.53E+00	9.96E+00	1.68E-01	-0.284	0.184	-0.941	1.20E+00	0.7644			
597	5.25E+00	9.96E+00	2.97E-01	-0.652	0.363	-0.666	5.77E-01	0.3842			
598	5.25E+00	9.96E+00	4.92E-01	-0.802	0.401	0.443	8.72E-01	-2.2339			
599	5.53E+00	9.96E+00	7.36E-01	-0.487	0.226	0.843	1.34E+00	-2.3455			
600	6.06E+00	9.96E+00	9.67E-01	-0.321	0.14	0.937	1.94E+00	-1.7332			
601	6.82E+00	9.96E+00	1.17E+00	-0.207	0.083	0.975	2.45E+00	-1.4965			
602	7.76E+00	9.96E+00	1.31E+00	-0.101	0.033	0.994	2.84E+00	-1.3448			
603	8.83E+00	9.96E+00	1.37E+00	0.003	-0.013	1	3.10E+00	-1.1553			
604	9.97E+00	9.96E+00	1.31E+00	0.097	-0.052	0.994	3.21E+00	-0.8936			
605	1.11E+01	9.96E+00	1.16E+00	0.163	-0.077	0.984	3.15E+00	-0.6097			
606	1.22E+01	9.96E+00	9.58E-01	0.204	-0.092	0.975	2.90E+00	-0.3557			
607	1.31E+01	9.96E+00	7.53E-01	0.222	-0.098	0.97	2.46E+00	-0.1583			
608	1.39E+01	9.96E+00	5.78E-01	0.226	-0.099	0.969	1.87E+00	-0.0267			
609	1.44E+01	9.96E+00	4.51E-01	0.239	-0.103	0.965	1.17E+00	0.1224			
610	1.47E+01	9.96E+00	3.83E-01	0.242	-0.104	0.965	3.99E-01	0.2193			
Strip 24											
611	1.55E+01	1.27E+01	4.74E-01	-0.128	0.072	-0.989	3.52E-01	0.2886			
612	1.52E+01	1.27E+01	5.03E-01	-0.109	0.067	-0.992	1.03E+00	0.3551			
613	1.47E+01	1.27E+01	5.21E-01	0.009	0.032	-0.999	1.64E+00	0.3768			
614	1.40E+01	1.27E+01	4.89E-01	0.073	0.012	-0.997	2.17E+00	0.3339			
615	1.31E+01	1.27E+01	4.06E-01	0.113	-0.001	-0.994	2.58E+00	0.2806			
616	1.21E+01	1.27E+01	2.88E-01	0.12	-0.004	-0.993	2.83E+00	0.2266			
617	1.11E+01	1.27E+01	1.72E-01	0.099	0.005	-0.995	2.91E+00	0.1887			
618	1.00E+01	1.27E+01	9.27E-02	0.049	0.026	-0.998	2.81E+00	0.1946			
619	9.00E+00	1.27E+01	7.33E-02	-0.012	0.053	-0.999	2.56E+00	0.2637			
620	8.13E+00	1.27E+01	1.08E-01	-0.072	0.08	-0.994	2.18E+00	0.3895			
621	7.42E+00	1.27E+01	1.81E-01	-0.14	0.114	-0.984	1.67E+00	0.5693			
622	6.92E+00	1.27E+01	2.82E-01	-0.284	0.184	-0.941	1.09E+00	0.7721			
623	6.67E+00	1.27E+01	4.02E-01	-0.652	0.363	-0.666	5.22E-01	0.277			
624	6.67E+00	1.27E+01	5.83E-01	-0.802	0.401	0.443	7.90E-01	-2.5183			
625	6.92E+00	1.27E+01	8.11E-01	-0.487	0.226	0.843	1.22E+00	-2.5242			
626	7.42E+00	1.27E+01	1.03E+00	-0.321	0.14	0.937	1.75E+00	-1.8334			
627	8.13E+00	1.27E+01	1.22E+00	-0.207	0.083	0.975	2.22E+00	-1.5645			
628	9.00E+00	1.27E+01	1.35E+00	-0.101	0.033	0.994	2.57E+00	-1.3939			
629	1.00E+01	1.27E+01	1.40E+00	0.003	-0.013	1	2.81E+00	-1.1903			
630	1.11E+01	1.27E+01	1.34E+00	0.097	-0.052	0.994	2.91E+00	-0.9171			
631	1.21E+01	1.27E+01	1.20E+00	0.163	-0.077	0.984	2.85E+00	-0.6242			
632	1.31E+01	1.27E+01	1.02E+00	0.204	-0.092	0.975	2.62E+00	-0.3642			
633	1.40E+01	1.27E+01	8.27E-01	0.222	-0.098	0.97	2.23E+00	-0.163			
634	1.47E+01	1.27E+01	6.63E-01	0.226	-0.099	0.969	1.69E+00	-0.0289			
635	1.52E+01	1.27E+01	5.45E-01	0.24	-0.103	0.965	1.06E+00	0.1223			
636	1.55E+01	1.27E+01	4.82E-01	0.242	-0.104	0.965	3.61E-01	0.2203			
Strip 25											
637	1.62E+01	1.53E+01	5.70E-01	-0.128	0.072	-0.989	3.16E-01	0.2888			
638	1.60E+01	1.53E+01	5.97E-01	-0.109	0.067	-0.992	9.26E-01	0.3553			
639	1.55E+01	1.53E+01	6.14E-01	0.009	0.032	-0.999	1.47E+00	0.3775			
640	1.48E+01	1.53E+01	5.84E-01	0.073	0.012	-0.997	1.94E+00	0.3356			
641	1.40E+01	1.53E+01	5.07E-01	0.113	-0.001	-0.994	2.31E+00	0.284			
642	1.31E+01	1.53E+01	3.98E-01	0.12	-0.004	-0.993	2.53E+00	0.2325			
643	1.21E+01	1.53E+01	2.89E-01	0.099	0.005	-0.995	2.60E+00	0.1979			
644	1.11E+01	1.53E+01	2.16E-01	0.049	0.026	-0.998	2.52E+00	0.2075			
645	1.02E+01	1.53E+01	1.98E-01	-0.012	0.053	-0.999	2.30E+00	0.2801			
646	9.39E+00	1.53E+01	2.30E-01	-0.072	0.08	-0.994	1.95E+00	0.4089			
647	8.74E+00	1.53E+01	2.98E-01	-0.14	0.114	-0.984	1.50E+00	0.5899			
648	8.27E+00	1.53E+01	3.91E-01	-0.284	0.184	-0.941	9.75E-01	0.7751			
649	8.04E+00	1.53E+01	5.03E-01	-0.652	0.364	-0.665	4.68E-01	0.1736			
650	8.04E+00	1.53E+01	6.72E-01	-0.802	0.401	0.444	7.08E-01	-2.7742			
651	8.27E+00	1.53E+01	8.83E-01	-0.487	0.226	0.844	1.09E+00	-2.6816			
652	8.74E+00	1.53E+01	1.08E+00	-0.321	0.14	0.937	1.57E+00	-1.921			
653	9.39E+00	1.53E+01	1.26E+00	-0.207	0.083	0.975	1.99E+00	-1.624			
654	1.02E+01	1.53E+01	1.38E+00	-0.101	0.033	0.994	2.31E+00	-1.4374			
655	1.11E+01	1.53E+01	1.43E+00	0.003	-0.013	1	2.51E+00	-1.2219			
656	1.21E+01	1.53E+01	1.38E+00	0.097	-0.052	0.994	2.60E+00	-0.9389			
657	1.31E+01	1.53E+01	1.25E+00	0.163	-0.077	0.984	2.55E+00	-0.6384			
658	1.40E+01	1.53E+01	1.08E+00	0.204	-0.092	0.975	2.35E+00	-0.3728			
659	1.48E+01	1.53E+01	8.98E-01	0.222	-0.098	0.97	2.00E+00	-0.1679			
660	1.55E+01	1.53E+01	7.46E-01	0.226	-0.099	0.969	1.52E+00	-0.0314			
661	1.60E+01	1.53E+01	6.36E-01	0.24	-0.103	0.965	9.51E-01	0.1217			
662	1.62E+01	1.53E+01	5.77E-01	0.243	-0.104	0.965	3.23E-01	0.2209			
Strip 26											
663	1.69E+01	1.79E+01	6.62E-01	-0.128	0.072	-0.989	2.80E-01	0.2887			
664	1.67E+01	1.79E+01	6.88E-01	-0.109	0.067	-0.992	8.20E-01	0.3554			
665	1.63E+01	1.79E+01	7.03E-01	0.009	0.032	-0.999	1.30E+00	0.378			
666	1.57E+01	1.79E+01	6.76E-01	0.073	0.012	-0.997	1.72E+00	0.337			
667	1.49E+01	1.79E+01	6.04E-01	0.113	-0.001	-0.994	2.05E+00	0.2868			
668	1.41E+01	1.79E+01	5.03E-01	0.12	-0.004	-0.993	2.25E+00	0.2375			
669	1.31E+01	1.79E+01	4.02E-01	0.099	0.005	-0.995	2.31E+00	0.2058			
670	1.22E+01	1.79E+01	3.35E-01	0.049	0.026	-0.998	2.23E+00	0.2187			
671	1.14E+01	1.79E+01	3.18E-01	-0.012	0.053	-0.999	2.04E+00	0.2943			
672	1.06E+01	1.79E+01	3.48E-01	-0.072	0.08	-0.994	1.73E+00	0.4256			
673	1.00E+01	1.79E+01	4.10E-01	-0.14	0.114	-0.984	1.33E+00	0.6071			
674	9.57E+00	1.79E+01	4.97E-01	-0.284	0.184	-0.941	8.64E-01	0.7747			
675	9.35E+00	1.79E+01	6.01E-01	-0.652	0.364	-0.665	4.14E-01	0.0744			
676	9.35E+00	1.79E+01	7.57E-01	-0.801	0.401	0.444	6.28E-01	-3.0066			
677	9.57E+00	1.79E+01	9.53E-01	-0.487	0.226	0.844	9.67E-01	-2.8219			
678	1.00E+01	1.79E+01	1.14E+00	-0.321	0.14	0.937	1.39E+00	-1.9988			
679	1.06E+01	1.79E+01	1.30E+00	-0.207	0.083	0.975	1.76E+00	-1.6768			
680	1.14E+01	1.79E+01	1.42E+00	-0.101	0.033	0.994	2.04E+00	-1.4761			
681	1.22E+01	1.79E+01	1.46E+00	0.003	-0.013	1	2.23E+00	-1.2502			
682	1.31E+01	1.79E+01	1.41E+00	0.097	-0.052	0.994	2.31E+00	-0.9586			
683	1.41E+01	1.79E+01	1.29E+00	0.163	-0.077	0.984	2.26E+00	-0.6512			
684	1.49E+01	1.79E+01	1.13E+00	0.204	-0.092	0.975	2.08E+00	-0.3808			
685	1.57E+01	1.79E+01	9.66E-01	0.222	-0.098	0.97	1.77E+00	-0.1726			
686	1.63E+01	1.79E+01	8.26E-01	0.226	-0.099	0.969	1.34E+00	-0.034			
687	1.67E+01	1.79E+01	7.24E-01	0.24	-0.103	0.965	8.42E-01	0.1209			
688	1.69E+01	1.79E+01	6.69E-01	0.243	-0.104	0.965	2.87E-01	0.221			
Strip 27											
689	1.76E+01	2.03E+01	7.50E-01	-0.128	0.072	-0.989	2.45E-01	0.2885			
690	1.74E+01	2.03E+01	7.74E-01	-0.109	0.067	-0.992	7.19E-01	0.3552			
691	1.70E+01	2.03E+01	7.88E-01	0.009	0.032	-0.999	1.14E+00	0.3782			
692	1.64E+01	2.03E+01	7.63E-01	0.073	0.012	-0.997	1.51E+00	0.3379			
693	1.57E+01	2.03E+01	6.96E-01	0.113	-0.001	-0.994	1.79E+00	0.2889			
694	1.49E+01	2.03E+01	6.03E-01	0.12	-0.004	-0.993	1.97E+00	0.2415			
695	1.41E+01	2.03E+01	5.10E-01	0.099	0.005	-0.995	2.02E+00	0.2124			
696	1.33E+01	2.03E+01	4.47E-01	0.049	0.026	-0.998	1.96E+00	0.2282			
697	1.25E+01	2.03E+01	4.32E-01	-0.012	0.053	-0.999	1.78E+00	0.3063			
698	1.18E+01	2.03E+01	4.60E-01	-0.072	0.08	-0.994	1.51E+00	0.4396			
699	1.12E+01	2.03E+01	5.17E-01	-0.14	0.114	-0.984	1.16E+00	0.6213			
700	1.08E+01	2.03E+01	5.98E-01	-0.284	0.184	-0.941	7.56E-01	0.7718			
701	1.06E+01	2.03E+01	6.93E-01	-0.653	0.364	-0.665	3.63E-01	-0.0193			
702	1.06E+01	2.03E+01	8.38E-01	-0.801	0.4	0.445	5.50E-01	-3.2166			
703	1.08E+01	2.03E+01	1.02E+00	-0.487	0.226	0.844	8.47E-01	-2.9466			
704	1.12E+01	2.03E+01	1.19E+00	-0.321	0.14	0.937	1.22E+00	-2.0673			
705	1.18E+01	2.03E+01	1.34E+00	-0.207	0.083	0.975	1.55E+00	-1.7232			
706	1.25E+01	2.03E+01	1.45E+00	-0.101	0.033	0.994	1.79E+00	-1.5098			
707	1.33E+01	2.03E+01	1.49E+00	0.003	-0.013	1	1.95E+00	-1.2748			
708	1.41E+01	2.03E+01	1.44E+00	0.097	-0.052	0.994	2.02E+00	-0.9757			
709	1.49E+01	2.03E+01	1.33E+00	0.163	-0.077	0.984	1.98E+00	-0.6624			
710	1.57E+01	2.03E+01	1.18E+00	0.204	-0.092	0.975	1.82E+00	-0.3878			
711	1.64E+01	2.03E+01	1.03E+00	0.222	-0.098	0.97	1.55E+00	-0.1767			
712	1.70E+01	2.03E+01	9.02E-01	0.226	-0.099	0.969	1.18E+00	-0.0363			
713	1.74E+01	2.03E+01	8.07E-01	0.24	-0.103	0.965	7.38E-01	0.1202			
714	1.76E+01	2.03E+01	7.57E-01	0.243	-0.104	0.965	2.51E-01	0.2212			
Strip 28											
715	1.82E+01	2.26E+01	8.33E-01	-0.128	0.072	-0.989	2.12E-01	0.288			
716	1.81E+01	2.26E+01	8.55E-01	-0.109	0.067	-0.992	6.22E-01	0.3547			
717	1.77E+01	2.26E+01	8.68E-01	0.009	0.032	-0.999	9.89E-01	0.3779			
718	1.72E+01	2.26E+01	8.45E-01	0.073	0.012	-0.997	1.31E+00	0.3382			
719	1.65E+01	2.26E+01	7.83E-01	0.113	-0.001	-0.994	1.55E+00	0.2901			
720	1.58E+01	2.26E+01	6.97E-01	0.12	-0.004	-0.993	1.70E+00	0.2444			
721	1.50E+01	2.26E+01	6.11E-01	0.099	0.005	-0.995	1.75E+00	0.2175			
722	1.42E+01	2.26E+01	5.54E-01	0.049	0.026	-0.998	1.69E+00	0.2357			
723	1.35E+01	2.26E+01	5.39E-01	-0.012	0.053	-0.999	1.54E+00	0.316			
724	1.29E+01	2.26E+01	5.65E-01	-0.072	0.08	-0.994	1.31E+00	0.4511			
725	1.23E+01	2.26E+01	6.18E-01	-0.14	0.114	-0.984	1.00E+00	0.6326			
726	1.20E+01	2.26E+01	6.92E-01	-0.284	0.184	-0.941	6.55E-01	0.7674			
727	1.18E+01	2.26E+01	7.81E-01	-0.653	0.364	-0.664	3.14E-01	-0.1055			
728	1.18E+01	2.26E+01	9.14E-01	-0.801	0.4	0.446	4.76E-01	-3.4019			
729	1.20E+01	2.26E+01	1.08E+00	-0.486	0.226	0.844	7.34E-01	-3.0549			
730	1.23E+01	2.26E+01	1.24E+00	-0.321	0.14	0.937	1.06E+00	-2.1264			
731	1.29E+01	2.26E+01	1.38E+00	-0.206	0.083	0.975	1.34E+00	-1.7627			
732	1.35E+01	2.26E+01	1.48E+00	-0.101	0.033	0.994	1.55E+00	-1.5384			
733	1.42E+01	2.26E+01	1.51E+00	0.003	-0.013	1	1.69E+00	-1.2955			
734	1.50E+01	2.26E+01	1.47E+00	0.097	-0.052	0.994	1.75E+00	-0.9898			
735	1.58E+01	2.26E+01	1.37E+00	0.163	-0.077	0.984	1.72E+00	-0.6716			
736	1.65E+01	2.26E+01	1.23E+00	0.204	-0.092	0.975	1.58E+00	-0.3935			
737	1.72E+01	2.26E+01	1.09E+00	0.222	-0.098	0.97	1.34E+00	-0.18			
738	1.77E+01	2.26E+01	9.73E-01	0.226	-0.099	0.969	1.02E+00	-0.0381			
739	1.81E+01	2.26E+01	8.86E-01	0.24	-0.103	0.965	6.39E-01	0.1195			
740	1.82E+01	2.26E+01	8.39E-01	0.243	-0.104	0.965	2.17E-01	0.2212			
Strip 29											
741	1.88E+01	2.47E+01	9.11E-01	-0.128	0.072	-0.989	1.81E-01	0.287			
742	1.87E+01	2.47E+01	9.31E-01	-0.109	0.067	-0.992	5.32E-01	0.3537			
743	1.83E+01	2.47E+01	9.43E-01	0.009	0.032	-0.999	8.45E-01	0.3769			
744	1.79E+01	2.47E+01	9.21E-01	0.073	0.012	-0.997	1.12E+00	0.3374			
745	1.73E+01	2.47E+01	8.65E-01	0.113	-0.001	-0.994	1.33E+00	0.2902			
746	1.66E+01	2.47E+01	7.85E-01	0.12	-0.004	-0.993	1.46E+00	0.2457			
747	1.59E+01	2.47E+01	7.06E-01	0.099	0.005	-0.995	1.50E+00	0.2204			
748	1.52E+01	2.47E+01	6.53E-01	0.049	0.026	-0.998	1.45E+00	0.2407			
749	1.45E+01	2.47E+01	6.39E-01	-0.012	0.053	-0.999	1.32E+00	0.3231			
750	1.39E+01	2.47E+01	6.63E-01	-0.072	0.08	-0.994	1.12E+00	0.4597			
751	1.34E+01	2.47E+01	7.12E-01	-0.141	0.114	-0.984	8.58E-01	0.6411			
752	1.31E+01	2.47E+01	7.81E-01	-0.284	0.184	-0.941	5.59E-01	0.7623			
753	1.29E+01	2.47E+01	8.62E-01	-0.653	0.364	-0.664	2.68E-01	-0.1807			
754	1.29E+01	2.47E+01	9.85E-01	-0.8	0.4	0.447	4.07E-01	-3.5576			
755	1.31E+01	2.47E+01	1.14E+00	-0.486	0.226	0.844	6.28E-01	-3.1442			
756	1.34E+01	2.47E+01	1.29E+00	-0.321	0.14	0.937	9.04E-01	-2.1744			
757	1.39E+01	2.47E+01	1.41E+00	-0.206	0.083	0.975	1.14E+00	-1.7943			
758	1.45E+01	2.47E+01	1.50E+00	-0.101	0.033	0.994	1.33E+00	-1.5607			
759	1.52E+01	2.47E+01	1.54E+00	0.003	-0.013	1	1.44E+00	-1.3112			
760	1.59E+01	2.47E+01	1.50E+00	0.097	-0.052	0.994	1.50E+00	-1.0004			
761	1.66E+01	2.47E+01	1.41E+00	0.163	-0.077	0.984	1.47E+00	-0.6781			
762	1.73E+01	2.47E+01	1.28E+00	0.204	-0.092	0.975	1.35E+00	-0.3974			
763	1.79E+01	2.47E+01	1.15E+00	0.222	-0.098	0.97	1.15E+00	-0.1823			
764	1.83E+01	2.47E+01	1.04E+00	0.226	-0.099	0.969	8.71E-01	-0.0393			
765	1.87E+01	2.47E+01	9.59E-01	0.24	-0.103	0.965	5.46E-01	0.119			
766	1.88E+01	2.47E+01	9.16E-01	0.243	-0.104	0.965	1.86E-01	0.2211			
Strip 30											
767	1.94E+01	2.66E+01	9.82E-01	-0.128	0.072	-0.989	1.53E-01	0.2855			
768	1.92E+01	2.66E+01	1.00E+00	-0.109	0.067	-0.992	4.48E-01	0.3517			
769	1.89E+01	2.66E+01	1.01E+00	0.009	0.032	-0.999	7.13E-01	0.3746			
770	1.85E+01	2.66E+01	9.92E-01	0.073	0.012	-0.997	9.42E-01	0.3352			
771	1.79E+01	2.66E+01	9.39E-01	0.113	-0.001	-0.994	1.12E+00	0.2883			
772	1.73E+01	2.66E+01	8.66E-01	0.12	-0.004	-0.993	1.23E+00	0.2446			
773	1.67E+01	2.66E+01	7.93E-01	0.099	0.005	-0.995	1.26E+00	0.2207			
774	1.60E+01	2.66E+01	7.44E-01	0.049	0.026	-0.998	1.22E+00	0.2426			
775	1.54E+01	2.66E+01	7.32E-01	-0.012	0.053	-0.999	1.11E+00	0.3266			
776	1.48E+01	2.66E+01	7.53E-01	-0.072	0.08	-0.994	9.44E-01	0.4647			
777	1.44E+01	2.66E+01	7.99E-01	-0.141	0.114	-0.984	7.24E-01	0.6464			
778	1.41E+01	2.66E+01	8.62E-01	-0.284	0.185	-0.941	4.72E-01	0.7571			
779	1.39E+01	2.66E+01	9.37E-01	-0.654	0.364	-0.663	2.26E-01	-0.24			
780	1.39E+01	2.66E+01	1.05E+00	-0.8	0.4	0.447	3.44E-01	-3.6753			
781	1.41E+01	2.66E+01	1.19E+00	-0.486	0.226	0.844	5.30E-01	-3.2098			
782	1.44E+01	2.66E+01	1.33E+00	-0.321	0.14	0.937	7.63E-01	-2.2086			
783	1.48E+01	2.66E+01	1.45E+00	-0.206	0.083	0.975	9.64E-01	-1.8159			
784	1.54E+01	2.66E+01	1.53E+00	-0.101	0.033	0.994	1.12E+00	-1.5751			
785	1.60E+01	2.66E+01	1.56E+00	0.003	-0.013	1	1.22E+00	-1.3205			
786	1.67E+01	2.66E+01	1.53E+00	0.097	-0.052	0.994	1.26E+00	-1.0059			
787	1.73E+01	2.66E+01	1.44E+00	0.163	-0.077	0.984	1.24E+00	-0.6811			
788	1.79E+01	2.66E+01	1.32E+00	0.204	-0.092	0.975	1.14E+00	-0.3987			
789	1.85E+01	2.66E+01	1.20E+00	0.222	-0.098	0.97	9.66E-01	-0.1829			
790	1.89E+01	2.66E+01	1.10E+00	0.226	-0.099	0.969	7.34E-01	-0.0397			
791	1.92E+01	2.66E+01	1.03E+00	0.24	-0.103	0.965	4.60E-01	0.1188			
792	1.94E+01	2.66E+01	9.87E-01	0.243	-0.104	0.965	1.57E-01	0.221			
Strip 31											
793	1.99E+01	2.84E+01	1.05E+00	-0.128	0.072	-0.989	1.27E-01	0.2827			
794	1.98E+01	2.84E+01	1.06E+00	-0.109	0.067	-0.992	3.72E-01	0.3483			
795	1.95E+01	2.84E+01	1.07E+00	0.009	0.032	-0.999	5.92E-01	0.3704			
796	1.91E+01	2.84E+01	1.06E+00	0.073	0.012	-0.997	7.82E-01	0.3305			
797	1.86E+01	2.84E+01	1.01E+00	0.113	-0.001	-0.994	9.29E-01	0.2833			
798	1.80E+01	2.84E+01	9.39E-01	0.12	-0.004	-0.993	1.02E+00	0.2398			
799	1.74E+01	2.84E+01	8.72E-01	0.099	0.005	-0.995	1.05E+00	0.2167			
800	1.68E+01	2.84E+01	8.27E-01	0.049	0.026	-0.998	1.01E+00	0.2397			
801	1.62E+01	2.84E+01	8.15E-01	-0.012	0.053	-0.999	9.24E-01	0.3253			
802	1.57E+01	2.84E+01	8.35E-01	-0.072	0.08	-0.994	7.84E-01	0.465			
803	1.53E+01	2.84E+01	8.77E-01	-0.141	0.114	-0.984	6.01E-01	0.6475			
804	1.50E+01	2.84E+01	9.36E-01	-0.284	0.185	-0.941	3.92E-01	0.7528			
805	1.48E+01	2.84E+01	1.01E+00	-0.654	0.365	-0.663	1.88E-01	-0.2765			
806	1.48E+01	2.84E+01	1.11E+00	-0.8	0.4	0.448	2.86E-01	-3.7419			
807	1.50E+01	2.84E+01	1.24E+00	-0.486	0.225	0.845	4.40E-01	-3.2443			
808	1.53E+01	2.84E+01	1.37E+00	-0.32	0.14	0.937	6.34E-01	-2.2249			
809	1.57E+01	2.84E+01	1.48E+00	-0.206	0.083	0.975	8.01E-01	-1.824			
810	1.62E+01	2.84E+01	1.55E+00	-0.101	0.033	0.994	9.28E-01	-1.5785			
811	1.68E+01	2.84E+01	1.58E+00	0.003	-0.013	1	1.01E+00	-1.3208			
812	1.74E+01	2.84E+01	1.55E+00	0.097	-0.052	0.994	1.05E+00	-1.0042			
813	1.80E+01	2.84E+01	1.47E+00	0.163	-0.077	0.984	1.03E+00	-0.6787			
814	1.86E+01	2.84E+01	1.36E+00	0.204	-0.092	0.975	9.45E-01	-0.3965			
815	1.91E+01	2.84E+01	1.25E+00	0.222	-0.098	0.97	8.03E-01	-0.1812			
816	1.95E+01	2.84E+01	1.16E+00	0.226	-0.099	0.969	6.10E-01	-0.0387			
817	1.98E+01	2.84E+01	1.09E+00	0.24	-0.103	0.965	3.82E-01	0.1191			
818	1.99E+01	2.84E+01	1.05E+00	0.243	-0.104	0.965	1.30E-01	0.2208			
Strip 32											
819	2.03E+01	3.00E+01	1.10E+00	-0.128	0.072	-0.989	1.04E-01	0.2778			
820	2.02E+01	3.00E+01	1.12E+00	-0.109	0.067	-0.992	3.04E-01	0.342			
821	1.99E+01	3.00E+01	1.13E+00	0.009	0.032	-0.999	4.84E-01	0.3626			
822	1.96E+01	3.00E+01	1.11E+00	0.073	0.012	-0.997	6.39E-01	0.3214			
823	1.91E+01	3.00E+01	1.07E+00	0.113	-0.001	-0.994	7.59E-01	0.2733			
824	1.86E+01	3.00E+01	1.01E+00	0.12	-0.004	-0.993	8.33E-01	0.2292			
825	1.80E+01	3.00E+01	9.42E-01	0.099	0.005	-0.995	8.56E-01	0.206			
826	1.74E+01	3.00E+01	9.00E-01	0.049	0.026	-0.998	8.28E-01	0.2298			
827	1.69E+01	3.00E+01	8.90E-01	-0.012	0.053	-0.999	7.54E-01	0.3167			
828	1.64E+01	3.00E+01	9.08E-01	-0.072	0.08	-0.994	6.40E-01	0.4584			
829	1.60E+01	3.00E+01	9.47E-01	-0.141	0.114	-0.984	4.91E-01	0.6429			
830	1.58E+01	3.00E+01	1.00E+00	-0.284	0.185	-0.941	3.20E-01	0.7499			
831	1.56E+01	3.00E+01	1.07E+00	-0.654	0.365	-0.662	1.53E-01	-0.2811			
832	1.56E+01	3.00E+01	1.16E+00	-0.799	0.399	0.449	2.33E-01	-3.7398			
833	1.58E+01	3.00E+01	1.29E+00	-0.485	0.225	0.845	3.60E-01	-3.2374			
834	1.60E+01	3.00E+01	1.40E+00	-0.32	0.139	0.937	5.18E-01	-2.2166			
835	1.64E+01	3.00E+01	1.50E+00	-0.206	0.083	0.975	6.54E-01	-1.8135			
836	1.69E+01	3.00E+01	1.57E+00	-0.101	0.033	0.994	7.58E-01	-1.5662			
837	1.74E+01	3.00E+01	1.60E+00	0.003	-0.013	1	8.26E-01	-1.3077			
838	1.80E+01	3.00E+01	1.57E+00	0.097	-0.052	0.994	8.55E-01	-0.9919			
839	1.86E+01	3.00E+01	1.50E+00	0.163	-0.077	0.984	8.38E-01	-0.6682			
840	1.91E+01	3.00E+01	1.40E+00	0.204	-0.092	0.975	7.71E-01	-0.3885			
841	1.96E+01	3.00E+01	1.29E+00	0.222	-0.098	0.97	6.55E-01	-0.1759			
842	1.99E+01	3.00E+01	1.21E+00	0.226	-0.099	0.969	4.98E-01	-0.0358			
843	2.02E+01	3.00E+01	1.14E+00	0.24	-0.103	0.965	3.12E-01	0.1198			
844	2.03E+01	3.00E+01	1.11E+00	0.243	-0.104	0.965	1.06E-01	0.2203			
Strip 33											
845	2.07E+01	3.14E+01	1.15E+00	-0.128	0.072	-0.989	8.27E-02	0.2688			
846	2.06E+01	3.14E+01	1.17E+00	-0.109	0.067	-0.992	2.43E-01	0.3307			
847	2.04E+01	3.14E+01	1.18E+00	0.009	0.032	-0.999	3.86E-01	0.3484			
848	2.00E+01	3.14E+01	1.16E+00	0.073	0.012	-0.997	5.10E-01	0.3049			
849	1.96E+01	3.14E+01	1.12E+00	0.113	-0.001	-0.994	6.06E-01	0.2546			
850	1.91E+01	3.14E+01	1.06E+00	0.12	-0.004	-0.993	6.66E-01	0.2088			
851	1.85E+01	3.14E+01	1.00E+00	0.099	0.005	-0.995	6.84E-01	0.1846			
852	1.80E+01	3.14E+01	9.64E-01	0.049	0.026	-0.998	6.61E-01	0.2085			
853	1.75E+01	3.14E+01	9.55E-01	-0.012	0.053	-0.999	6.03E-01	0.2969			
854	1.71E+01	3.14E+01	9.72E-01	-0.072	0.08	-0.994	5.11E-01	0.4413			
855	1.67E+01	3.14E+01	1.01E+00	-0.141	0.114	-0.984	3.92E-01	0.6298			
856	1.65E+01	3.14E+01	1.06E+00	-0.284	0.185	-0.941	2.55E-01	0.7484			
857	1.64E+01	3.14E+01	1.12E+00	-0.655	0.365	-0.662	1.22E-01	-0.2434			
858	1.64E+01	3.14E+01	1.21E+00	-0.799	0.399	0.45	1.87E-01	-3.6469			
859	1.65E+01	3.14E+01	1.32E+00	-0.485	0.225	0.845	2.87E-01	-3.1754			
860	1.67E+01	3.14E+01	1.43E+00	-0.32	0.139	0.937	4.14E-01	-2.1749			
861	1.71E+01	3.14E+01	1.52E+00	-0.206	0.083	0.975	5.23E-01	-1.7767			
862	1.75E+01	3.14E+01	1.59E+00	-0.101	0.033	0.994	6.06E-01	-1.5312			
863	1.80E+01	3.14E+01	1.61E+00	0.003	-0.013	1	6.60E-01	-1.2749			
864	1.85E+01	3.14E+01	1.59E+00	0.097	-0.052	0.994	6.83E-01	-0.9631			
865	1.91E+01	3.14E+01	1.52E+00	0.163	-0.077	0.984	6.70E-01	-0.6451			
866	1.96E+01	3.14E+01	1.43E+00	0.204	-0.092	0.975	6.16E-01	-0.3719			
867	2.00E+01	3.14E+01	1.33E+00	0.222	-0.098	0.97	5.23E-01	-0.1656			
868	2.04E+01	3.14E+01	1.25E+00	0.226	-0.099	0.969	3.98E-01	-0.0307			
869	2.06E+01	3.14E+01	1.19E+00	0.24	-0.103	0.965	2.49E-01	0.1205			
870	2.07E+01	3.14E+01	1.16E+00	0.243	-0.104	0.965	8.48E-02	0.2186			
Strip 34											
871	2.11E+01	3.25E+01	1.20E+00	-0.128	0.072	-0.989	6.42E-02	0.2506			
872	2.09E+01	3.25E+01	1.21E+00	-0.109	0.067	-0.992	1.88E-01	0.3086			
873	2.07E+01	3.25E+01	1.22E+00	0.009	0.032	-0.999	3.00E-01	0.3218			
874	2.04E+01	3.25E+01	1.20E+00	0.073	0.012	-0.997	3.96E-01	0.2747			
875	2.00E+01	3.25E+01	1.16E+00	0.113	-0.001	-0.994	4.71E-01	0.2212			
876	1.95E+01	3.25E+01	1.11E+00	0.12	-0.004	-0.993	5.17E-01	0.1725			
877	1.90E+01	3.25E+01	1.06E+00	0.099	0.005	-0.995	5.31E-01	0.146			
878	1.85E+01	3.25E+01	1.02E+00	0.049	0.026	-0.998	5.13E-01	0.1689			
879	1.80E+01	3.25E+01	1.01E+00	-0.012	0.053	-0.999	4.68E-01	0.259			
880	1.76E+01	3.25E+01	1.03E+00	-0.072	0.08	-0.994	3.97E-01	0.4076			
881	1.73E+01	3.25E+01	1.06E+00	-0.141	0.114	-0.984	3.04E-01	0.6031			
882	1.71E+01	3.25E+01	1.11E+00	-0.285	0.185	-0.941	1.98E-01	0.7458			
883	1.70E+01	3.25E+01	1.16E+00	-0.655	0.365	-0.661	9.47E-02	-0.155			
884	1.70E+01	3.25E+01	1.25E+00	-0.798	0.399	0.451	1.45E-01	-3.4397			
885	1.71E+01	3.25E+01	1.35E+00	-0.485	0.225	0.845	2.23E-01	-3.0428			
886	1.73E+01	3.25E+01	1.45E+00	-0.32	0.139	0.937	3.21E-01	-2.0885			
887	1.76E+01	3.25E+01	1.54E+00	-0.206	0.083	0.975	4.06E-01	-1.7035			
888	1.80E+01	3.25E+01	1.61E+00	-0.101	0.033	0.994	4.70E-01	-1.4634			
889	1.85E+01	3.25E+01	1.63E+00	0.003	-0.013	1	5.12E-01	-1.2128			
890	1.90E+01	3.25E+01	1.60E+00	0.097	-0.052	0.994	5.30E-01	-0.9104			
891	1.95E+01	3.25E+01	1.54E+00	0.163	-0.077	0.984	5.20E-01	-0.6046			
892	2.00E+01	3.25E+01	1.45E+00	0.204	-0.092	0.975	4.78E-01	-0.3445			
893	2.04E+01	3.25E+01	1.36E+00	0.222	-0.098	0.97	4.06E-01	-0.1506			
894	2.07E+01	3.25E+01	1.29E+00	0.226	-0.099	0.969	3.09E-01	-0.0259			
895	2.09E+01	3.25E+01	1.23E+00	0.24	-0.103	0.965	1.93E-01	0.1172			
896	2.11E+01	3.25E+01	1.20E+00	0.243	-0.104	0.965	6.58E-02	0.2112			
Strip 35											
897	2.13E+01	3.35E+01	1.23E+00	-0.128	0.072	-0.989	4.77E-02	0.2079			
898	2.12E+01	3.35E+01	1.24E+00	-0.109	0.067	-0.992	1.40E-01	0.2597			
899	2.10E+01	3.35E+01	1.25E+00	0.009	0.032	-0.999	2.23E-01	0.2665			
900	2.07E+01	3.35E+01	1.24E+00	0.073	0.012	-0.997	2.94E-01	0.2162			
901	2.03E+01	3.35E+01	1.20E+00	0.113	-0.001	-0.994	3.50E-01	0.1612			
902	1.99E+01	3.35E+01	1.15E+00	0.12	-0.004	-0.993	3.84E-01	0.111			
903	1.94E+01	3.35E+01	1.10E+00	0.099	0.005	-0.995	3.94E-01	0.0816			
904	1.89E+01	3.35E+01	1.06E+00	0.049	0.026	-0.998	3.81E-01	0.1015			
905	1.85E+01	3.35E+01	1.05E+00	-0.012	0.053	-0.999	3.47E-01	0.1914			
906	1.81E+01	3.35E+01	1.07E+00	-0.072	0.08	-0.994	2.95E-01	0.3452			
907	1.78E+01	3.35E+01	1.10E+00	-0.141	0.114	-0.984	2.26E-01	0.552			
908	1.76E+01	3.35E+01	1.15E+00	-0.285	0.185	-0.941	1.47E-01	0.7337			
909	1.74E+01	3.35E+01	1.20E+00	-0.656	0.365	-0.661	7.03E-02	-0.0161			
910	1.74E+01	3.35E+01	1.28E+00	-0.798	0.399	0.452	1.08E-01	-3.1024			
911	1.76E+01	3.35E+01	1.38E+00	-0.484	0.225	0.845	1.66E-01	-2.8264			
912	1.78E+01	3.35E+01	1.48E+00	-0.32	0.139	0.937	2.39E-01	-1.9452			
913	1.81E+01	3.34E+01	1.56E+00	-0.206	0.083	0.975	3.02E-01	-1.581			
914	1.85E+01	3.34E+01	1.62E+00	-0.101	0.033	0.994	3.49E-01	-1.3503			
915	1.89E+01	3.34E+01	1.64E+00	0.003	-0.013	1	3.80E-01	-1.1119			
916	1.94E+01	3.34E+01	1.62E+00	0.097	-0.052	0.994	3.94E-01	-0.8292			
917	1.99E+01	3.35E+01	1.55E+00	0.163	-0.077	0.984	3.86E-01	-0.548			
918	2.03E+01	3.35E+01	1.47E+00	0.204	-0.092	0.975	3.55E-01	-0.3132			
919	2.07E+01	3.35E+01	1.39E+00	0.222	-0.098	0.97	3.02E-01	-0.1425			
920	2.10E+01	3.35E+01	1.31E+00	0.226	-0.099	0.969	2.29E-01	-0.0363			
921	2.12E+01	3.35E+01	1.26E+00	0.24	-0.103	0.965	1.44E-01	0.0936			
922	2.13E+01	3.35E+01	1.23E+00	0.243	-0.104	0.964	4.88E-02	0.1809			
Strip 36											
923	2.15E+01	3.42E+01	1.26E+00	-0.128	0.072	-0.989	3.28E-02	0.0806			
924	2.14E+01	3.42E+01	1.27E+00	-0.109	0.067	-0.992	9.63E-02	0.1217			
925	2.12E+01	3.42E+01	1.28E+00	0.009	0.032	-0.999	1.53E-01	0.1233			
926	2.09E+01	3.42E+01	1.26E+00	0.073	0.012	-0.997	2.03E-01	0.08			
927	2.05E+01	3.42E+01	1.23E+00	0.113	-0.001	-0.994	2.41E-01	0.0389			
928	2.01E+01	3.42E+01	1.18E+00	0.12	-0.004	-0.993	2.64E-01	0.0029			
929	1.97E+01	3.42E+01	1.13E+00	0.099	0.005	-0.995	2.71E-01	-0.0184			
930	1.92E+01	3.42E+01	1.10E+00	0.049	0.026	-0.998	2.62E-01	-0.0005			
931	1.88E+01	3.42E+01	1.09E+00	-0.012	0.053	-0.999	2.39E-01	0.0808			
932	1.84E+01	3.42E+01	1.10E+00	-0.072	0.08	-0.994	2.03E-01	0.2305			
933	1.81E+01	3.42E+01	1.13E+00	-0.141	0.114	-0.983	1.55E-01	0.4492			
934	1.79E+01	3.42E+01	1.18E+00	-0.285	0.185	-0.941	1.01E-01	0.6865			
935	1.78E+01	3.42E+01	1.23E+00	-0.656	0.366	-0.66	4.84E-02	0.1502			
936	1.78E+01	3.42E+01	1.30E+00	-0.798	0.398	0.453	7.41E-02	-2.6381			
937	1.79E+01	3.42E+01	1.40E+00	-0.484	0.225	0.846	1.14E-01	-2.5188			
938	1.81E+01	3.42E+01	1.49E+00	-0.32	0.139	0.937	1.64E-01	-1.7325			
939	1.84E+01	3.42E+01	1.57E+00	-0.206	0.083	0.975	2.08E-01	-1.3963			
940	1.88E+01	3.42E+01	1.63E+00	-0.101	0.033	0.994	2.40E-01	-1.1844			
941	1.92E+01	3.42E+01	1.65E+00	0.003	-0.013	1	2.62E-01	-0.9757			
942	1.97E+01	3.42E+01	1.62E+00	0.097	-0.052	0.994	2.71E-01	-0.7365			
943	2.01E+01	3.42E+01	1.57E+00	0.163	-0.077	0.984	2.66E-01	-0.5069			
944	2.05E+01	3.42E+01	1.49E+00	0.204	-0.092	0.975	2.44E-01	-0.3237			
945	2.09E+01	3.42E+01	1.41E+00	0.222	-0.098	0.97	2.08E-01	-0.1985			
946	2.12E+01	3.42E+01	1.34E+00	0.226	-0.099	0.969	1.58E-01	-0.1289			
947	2.14E+01	3.42E+01	1.29E+00	0.24	-0.103	0.965	9.88E-02	-0.0217			
948	2.15E+01	3.42E+01	1.26E+00	0.243	-0.104	0.964	3.36E-02	0.056			
Strip 37											
949	2.17E+01	3.46E+01	1.27E+00	-0.128	0.072	-0.989	1.92E-02	-0.5258			
950	2.16E+01	3.46E+01	1.29E+00	-0.109	0.067	-0.992	5.63E-02	-0.5104			
951	2.14E+01	3.46E+01	1.29E+00	0.009	0.032	-0.999	8.96E-02	-0.4419			
952	2.11E+01	3.46E+01	1.28E+00	0.073	0.012	-0.997	1.18E-01	-0.346			
953	2.07E+01	3.46E+01	1.25E+00	0.113	-0.001	-0.994	1.41E-01	-0.2491			
954	2.03E+01	3.46E+01	1.20E+00	0.12	-0.004	-0.993	1.54E-01	-0.1885			
955	1.99E+01	3.46E+01	1.15E+00	0.099	0.005	-0.995	1.59E-01	-0.1552			
956	1.94E+01	3.46E+01	1.12E+00	0.049	0.026	-0.998	1.53E-01	-0.1176			
957	1.90E+01	3.46E+01	1.11E+00	-0.012	0.053	-0.999	1.40E-01	-0.0508			
958	1.87E+01	3.46E+01	1.12E+00	-0.072	0.08	-0.994	1.19E-01	0.0585			
959	1.84E+01	3.46E+01	1.15E+00	-0.141	0.114	-0.983	9.08E-02	0.2429			
960	1.82E+01	3.46E+01	1.20E+00	-0.285	0.185	-0.941	5.91E-02	0.5181			
961	1.81E+01	3.46E+01	1.24E+00	-0.656	0.366	-0.66	2.83E-02	0.2476			
962	1.81E+01	3.46E+01	1.32E+00	-0.797	0.398	0.453	4.33E-02	-2.0878			
963	1.82E+01	3.46E+01	1.41E+00	-0.484	0.225	0.846	6.68E-02	-2.1148			
964	1.84E+01	3.46E+01	1.50E+00	-0.32	0.139	0.937	9.61E-02	-1.434			
965	1.87E+01	3.46E+01	1.58E+00	-0.206	0.083	0.975	1.21E-01	-1.1486			
966	1.90E+01	3.46E+01	1.63E+00	-0.101	0.033	0.994	1.41E-01	-0.9878			
967	1.94E+01	3.46E+01	1.65E+00	0.003	-0.013	1	1.53E-01	-0.8391			
968	1.99E+01	3.46E+01	1.63E+00	0.097	-0.052	0.994	1.58E-01	-0.6774			
969	2.03E+01	3.46E+01	1.57E+00	0.163	-0.077	0.984	1.55E-01	-0.5572			
970	2.07E+01	3.46E+01	1.50E+00	0.204	-0.092	0.975	1.43E-01	-0.5286			
971	2.11E+01	3.46E+01	1.42E+00	0.222	-0.098	0.97	1.21E-01	-0.5922			
972	2.14E+01	3.46E+01	1.35E+00	0.226	-0.099	0.969	9.22E-02	-0.6965			
973	2.16E+01	3.46E+01	1.30E+00	0.24	-0.103	0.965	5.78E-02	-0.6793			
974	2.17E+01	3.46E+01	1.28E+00	0.243	-0.104	0.964	1.97E-02	-0.6347			
Strip 38											
975	2.17E+01	3.49E+01	1.28E+00	-0.128	0.072	-0.989	6.31E-03	-1.285			
976	2.16E+01	3.49E+01	1.29E+00	-0.109	0.067	-0.992	1.85E-02	-1.3365			
977	2.14E+01	3.49E+01	1.30E+00	0.009	0.032	-0.999	2.95E-02	-1.2058			
978	2.11E+01	3.49E+01	1.29E+00	0.073	0.012	-0.997	3.89E-02	-0.9141			
979	2.08E+01	3.49E+01	1.26E+00	0.113	-0.001	-0.994	4.63E-02	-0.6096			
980	2.04E+01	3.49E+01	1.21E+00	0.12	-0.004	-0.993	5.08E-02	-0.3956			
981	2.00E+01	3.49E+01	1.16E+00	0.099	0.005	-0.995	5.22E-02	-0.27			
982	1.95E+01	3.49E+01	1.13E+00	0.049	0.026	-0.998	5.05E-02	-0.1896			
983	1.91E+01	3.49E+01	1.12E+00	-0.012	0.053	-0.999	4.60E-02	-0.1201			
984	1.88E+01	3.49E+01	1.14E+00	-0.072	0.08	-0.994	3.90E-02	-0.0405			
985	1.85E+01	3.49E+01	1.16E+00	-0.141	0.114	-0.983	2.99E-02	0.0897			
986	1.83E+01	3.49E+01	1.21E+00	-0.285	0.185	-0.941	1.94E-02	0.339			
987	1.82E+01	3.49E+01	1.25E+00	-0.656	0.366	-0.66	9.30E-03	0.3281			
988	1.82E+01	3.49E+01	1.33E+00	-0.797	0.398	0.454	1.43E-02	-1.5112			
989	1.83E+01	3.49E+01	1.42E+00	-0.484	0.225	0.846	2.20E-02	-1.6793			
990	1.85E+01	3.49E+01	1.51E+00	-0.32	0.139	0.937	3.16E-02	-1.1523			
991	1.88E+01	3.49E+01	1.58E+00	-0.206	0.083	0.975	3.99E-02	-0.9414			
992	1.91E+01	3.49E+01	1.64E+00	-0.101	0.033	0.994	4.62E-02	-0.8285			
993	1.95E+01	3.49E+01	1.66E+00	0.003	-0.013	1	5.03E-02	-0.721			
994	2.00E+01	3.49E+01	1.63E+00	0.097	-0.052	0.994	5.21E-02	-0.6119			
995	2.04E+01	3.49E+01	1.58E+00	0.163	-0.077	0.984	5.11E-02	-0.5669			
996	2.08E+01	3.49E+01	1.50E+00	0.204	-0.092	0.975	4.70E-02	-0.6641			
997	2.11E+01	3.49E+01	1.43E+00	0.222	-0.098	0.97	3.99E-02	-0.9428			
998	2.14E+01	3.49E+01	1.36E+00	0.226	-0.099	0.969	3.03E-02	-1.3181			
999	2.16E+01	3.49E+01	1.31E+00	0.24	-0.103	0.965	1.90E-02	-1.4752			
1000	2.17E+01	3.49E+01	1.29E+00	0.243	-0.104	0.964	6.46E-03	-1.5016			
